35
 energy: -49.719568499837 gnorm: 0.112232328449 xtb: 6.4.1 (79825abcba525fcdf90b791dcacef51065a7a4e7)
C         3.50414472826424   -1.43324888425815   -2.75605298436064
C         3.08441121368682   -0.04379305360407   -3.21291262690782
N         4.12456216625700    0.97918280155184   -2.90068127938031
C         3.68104051015017    1.70058888548448   -1.91189907510185
C         4.30287867687812    3.03175552436271   -1.63177830372957
C         3.75030619349998    3.77884332995913   -2.85155109649902
N         4.56230129486187    4.47655750820541   -3.58196446935806
N         2.42805606135583    3.78064672529044   -3.26345056628337
C         1.22636273310854    3.06164433438413   -2.79775144764603
C        -0.04682101118787    3.87434729425954   -3.14867718538377
O        -0.65031397388840    4.39398440680910   -1.96367951781600
C         1.12356497605086    1.59709377183390   -3.27816356694862
C         1.86211121631575    0.53750599162864   -2.41111403426085
C         0.89021777011279   -0.50449158672326   -1.77553495925016
N         0.32217144112263    0.13287155614393   -0.57737237380273
N         2.56474772888828    1.17951250794478   -1.28253681855058
H         3.18906008510114   -1.66867182556567   -1.73254167960448
H         4.59148669095021   -1.39934128771623   -2.88127206520433
H         3.12503234136721   -2.15998684835779   -3.47749140955011
H         2.92722801992276   -0.05156551723750   -4.30008669839204
H         5.39359549593481    3.03980541553202   -1.70205751922773
H         3.90333671623979    3.34693031785257   -0.66585642427723
H         5.53544397657570    4.68762049206203   -3.32771400767379
H         2.23023934327221    4.26594806875027   -4.14166281124566
H         1.24109941017486    3.17254190758127   -1.70502803903703
H        -0.85452465337677    3.28410309331017   -3.59348523159187
H         0.25728462598495    4.66866897926643   -3.84185259755729
H        -0.00460588568608    4.91657522639544   -1.45101280324918
H         1.38235112606106    1.52756881341223   -4.34318291646275
H         0.06072849631132    1.32055770656678   -3.29636520892557
H         1.36470957350474   -1.44153958112944   -1.48529032566695
H         0.11410838618213   -0.68564388201862   -2.52953680704305
H        -0.19480078654244   -0.51261086044629    0.01464849207097
H        -0.30988065586420    0.90818163670661   -0.78328379314655
H         2.04801536196879    1.64368391027856   -0.53836878667015
