35
 energy: -49.724653789722 gnorm: 0.105551448461 xtb: 6.4.1 (79825abcba525fcdf90b791dcacef51065a7a4e7)
C         3.60745198527739   -1.44227575490057   -2.50730666556083
C         2.98657724101288   -0.16959980320497   -3.06434788394179
N         3.96177493110738    0.95804926195921   -3.12161090485171
C         3.72317320182563    1.66691070828432   -2.05605326783879
C         4.34327772781369    3.02211972809881   -1.92942856809630
C         3.57819770063935    3.93845533732433   -2.89187534161546
N         4.04623966849416    5.08588920442077   -3.27131842547661
N         2.36087609502038    3.57783672082459   -3.44513132064328
C         1.23237702716854    2.97951231341922   -2.70593936466112
C        -0.06684510907764    3.71735812737531   -3.12095411378379
O         0.06655741646475    5.11009315439802   -2.83645653050762
C         1.06987387753350    1.46891960023682   -2.98517746061205
C         1.86641679740091    0.43434572077243   -2.13952508920987
C         1.03508540633482   -0.69138727254942   -1.44966287082519
N        -0.07553735991124   -0.19144568955285   -0.62438870560566
N         2.70405690735180    1.23609245158072   -1.22567710099849
H         4.41768125458447   -1.80539554358356   -3.15069630729654
H         2.87492569842229   -2.24620611775783   -2.37985749856175
H         4.10110950608546   -1.25267382111168   -1.55195279072570
H         2.71429630451714   -0.34617333433395   -4.11382360831279
H         5.40899386608766    2.98338253246701   -2.16904425321964
H         4.24684900896453    3.33650245325407   -0.88835268103110
H         5.01882404701243    5.30258890141557   -3.01968688858271
H         2.07683695694344    4.36565678662074   -4.03212954703336
H         1.38399997874179    3.13089959893943   -1.62860364240603
H        -0.90057247327318    3.36158836763949   -2.50698818663323
H        -0.29200132083649    3.60501822164250   -4.18894463682195
H         0.70303356892204    5.42843739072153   -3.50460495486773
H         1.19854148202503    1.25194285334853   -4.05402541227627
H         0.00006076514476    1.22055572713655   -2.96968056071716
H         1.78268150725859   -1.17973008843764   -0.82511125298909
H         0.61735700545998   -1.30714845819773   -2.25590219556638
H        -0.76831265591617   -0.83673906349366   -0.25283065671152
H        -0.52401088991498    0.46865950153250   -1.26167020981129
H         2.49596453985383    1.52327562732487   -0.27148799666579
