35
 energy: -49.727509074434 gnorm: 0.102396746104 xtb: 6.4.1 (79825abcba525fcdf90b791dcacef51065a7a4e7)
C         3.67470139129261   -1.41305459759511   -2.51109586552632
C         2.99605369357471   -0.19839344456302   -3.12714785569914
N         4.02837554616451    0.87660369270354   -3.05951081024064
C         3.76216031914824    1.63694209752533   -2.03684595910295
C         4.34793039415999    2.99070508175099   -1.78914824472452
C         3.62068492767288    3.94180675207809   -2.74718887729917
N         4.12015120935356    5.11184961552838   -2.99453065898252
N         2.39665915283922    3.69854204494330   -3.34768287287036
C         1.25220679790311    2.89994761789939   -2.86770086291689
C        -0.01027977910243    3.70906093316313   -3.26278963333182
O        -0.01058024094640    5.02758997501938   -2.71513368461851
C         1.00547535378516    1.40721324827097   -3.17937255993021
C         1.81966526138985    0.42507706159281   -2.28917312601695
C         0.91432203591976   -0.60329970496271   -1.54278752582485
N        -0.23432521650972    0.04092288013405   -0.88697601695983
N         2.64539332087425    1.20360088131892   -1.34491108515033
H         4.59994198478016   -1.73983542772121   -3.00040335349683
H         2.95286586006196   -2.23641734014982   -2.52410920743286
H         3.87744246795365   -1.20149343628240   -1.45919967089066
H         2.72714449203710   -0.48086414669702   -4.15409117291446
H         5.38297074281121    2.93677313369415   -2.13620728547621
H         4.28353981942799    3.32206985472918   -0.75086829921660
H         5.10992596361660    5.22152378896355   -2.74053247275039
H         2.20125727291807    4.26399126662932   -4.17713503040498
H         1.27625252685470    2.94728787909206   -1.77054973124038
H        -0.90409486656656    3.16184677319424   -2.94612127098508
H        -0.01225327670885    3.85073291676612   -4.35083581355341
H         0.90776104347039    5.33791574742718   -2.60017951365666
H         1.24420382153485    1.18966723720135   -4.22901662634386
H        -0.03282683010097    1.09038010582641   -3.01212957429016
H         1.57849245198430   -1.21962600761411   -0.93742572068308
H         0.44891606581333   -1.23741819943810   -2.30762197760122
H        -0.01362114788074    0.73938080871696   -0.18139627326635
H        -0.95310603383031   -0.57608008804659   -0.50532623073040
H         2.31207741302133    1.42172826007678   -0.40812165473267
