35
 energy: -49.718559778535 gnorm: 0.120987607267 xtb: 6.4.1 (79825abcba525fcdf90b791dcacef51065a7a4e7)
C         3.36247844705369   -1.62318819069914   -2.62798726887147
C         2.87059517801819   -0.28546089318554   -3.16092345777957
N         3.98744764590917    0.69294382249828   -3.30668625212529
C         3.86951919170565    1.51883351248073   -2.30727266559313
C         4.53158107367370    2.83777538299516   -2.06391832956269
C         3.75784188828252    3.92933867900317   -2.81301073092559
N         4.39141243289685    5.04924642934290   -2.96805845907051
N         2.48296036565645    3.72035088469752   -3.31202078303463
C         1.27156221908677    3.07788827178317   -2.76643549976585
C         0.04326223897297    3.92397626239635   -3.19075390290032
O        -0.87876512988971    4.02633901929980   -2.10547359045289
C         1.17584363639545    1.61939142700804   -3.26633195688195
C         1.84377450982449    0.57051903842345   -2.33161982179805
C         0.86366371381061   -0.24518126699212   -1.43255785171760
N         0.09244697777868    0.73113212578168   -0.64735794603359
N         2.87165849423406    1.12997380588730   -1.43160768543567
H         3.26341269384801   -1.67199927263392   -1.53707886840953
H         4.42236428493430   -1.72698352164884   -2.88295908037830
H         2.82252350727453   -2.36194112740528   -3.22383996271752
H         2.62061262520069   -0.39887411675674   -4.22457781602699
H         5.59280698287842    2.80168474481432   -2.32307882691345
H         4.46471043280965    3.09429582990432   -1.00481513077862
H         5.38304604238146    5.04672718102758   -2.69814365858450
H         2.28024716887898    4.55177413641025   -3.87197465884795
H         1.36450814528201    3.10218757128288   -1.67220952074073
H        -0.34640428522995    3.56873584584886   -4.15022867517972
H         0.45068364683517    4.94027547226005   -3.26190901771379
H        -1.32560121401183    3.16944852752150   -2.24310884237224
H         1.63915130962831    1.64397140810061   -4.26172737767230
H         0.15062764696305    1.26895355140301   -3.44674910404110
H         1.46208584650379   -0.91409320801679   -0.81458444282263
H         0.16336054054343   -0.82949118842684   -2.04234313828756
H         0.60124114913134    1.14612654502297    0.12936894464447
H        -0.74287984712116    0.28298230033083   -0.26737647732059
H         2.62688712198772    1.73600938871660   -0.65118386774592
