35
 energy: -49.721805587288 gnorm: 0.117481786803 xtb: 6.4.1 (79825abcba525fcdf90b791dcacef51065a7a4e7)
C         3.57539407551634   -1.45820386743333   -2.64480262112622
C         3.10794016606686   -0.07335621291592   -3.06808536832374
N         4.20734880026747    0.91815425492049   -2.88345148853191
C         3.81080670041391    1.56198356723526   -1.82370311270541
C         4.19138550684337    2.98644327477630   -1.57224878753570
C         3.76236914133203    3.82708481580345   -2.78079707328847
N         4.37080797396719    4.70746123088396   -3.51181305458729
N         2.46584112380927    3.56210896371980   -3.18922423997666
C         1.21813731273731    2.95418553823253   -2.68765541063733
C         0.01362556185211    3.78159798694311   -3.20647322717784
O        -0.11467855176167    5.09456133377772   -2.66047756529616
C         1.08484679494049    1.46987402012143   -3.09425659164346
C         1.90343300790708    0.47768582927456   -2.21936749134708
C         0.94271976222536   -0.58364356499120   -1.59895909711159
N        -0.26491560365620    0.11870951195867   -1.13763603360769
N         2.67854321200520    1.13884989456509   -1.15089979192440
H         4.44434583772267   -1.77632837306655   -3.23301799023755
H         2.80502266779193   -2.21337828758931   -2.83290252799192
H         3.79215160833454   -1.45892549771231   -1.57458613706372
H         2.73551227794319    0.01063324711599   -4.09811336587260
H         5.27583165298212    3.09867592718155   -1.49448286020295
H         3.73007301096158    3.36106809335965   -0.65637705373525
H         5.29447976921610    5.00559834950694   -3.17396362796796
H         2.26411524839718    4.09634242698575   -4.03763857428988
H         1.15303315021710    3.15471303247607   -1.60964332067801
H        -0.84759443533319    3.26032720541687   -2.77611931397171
H        -0.07812865694815    3.75579939800601   -4.29955827691634
H         0.21490689243903    5.68876038833146   -3.36131148282057
H         1.40649872349627    1.50605929611914   -4.14368543072447
H         0.02118918122537    1.19730206976782   -3.12185898988210
H         1.38797602900753   -1.13232664171484   -0.76941879874075
H         0.53981178597710   -1.35469459744741   -2.26740968010102
H        -0.24802263883983    0.26298521109615   -0.13101013920553
H        -1.05718473055914   -0.49249434572345   -1.34192642384296
H         2.12978558187915    1.81287368709767   -0.62098424310286
