35
 energy: -49.720382547127 gnorm: 0.119426013670 xtb: 6.4.1 (79825abcba525fcdf90b791dcacef51065a7a4e7)
C         3.61680396530882   -1.45968690347038   -2.39176050906575
C         2.93371848560776   -0.23401241839819   -2.98048855620351
N         3.96082328020374    0.82873154086335   -3.18423598694016
C         3.77711494374831    1.61739253711977   -2.16487663155597
C         4.27974551486774    3.02553226586254   -2.20561896695298
C         3.68563241831322    3.84110479253660   -3.36025885969621
N         4.20451666700847    4.94543051092663   -3.79714404040453
N         2.50016262970230    3.34373713024510   -3.87532843423563
C         1.45118109756433    3.01944309609783   -2.88923607813547
C         0.26973609840581    3.98592911305535   -3.16259358177831
O        -0.79798075415007    4.02115866022268   -2.21539479037159
C         0.98404138423331    1.54701337822190   -2.88757792342333
C         1.84890363145947    0.50887304466496   -2.11671502343547
C         0.94580749241748   -0.36862334631739   -1.19545827620269
N        -0.09709316027443    0.44089358153219   -0.54619520051055
N         2.81426646065781    1.21934201722769   -1.25481862933578
H         3.73091116202961   -1.21206025508093   -1.32971612554485
H         4.61637558190460   -1.47488833040082   -2.83871417649265
H         2.97250514550292   -2.33603430585192   -2.48789543653402
H         2.47995635664308   -0.47087803994558   -3.95244998604823
H         5.34352398307458    3.08731401661858   -2.44898193416974
H         4.00672000957093    3.39452826590079   -1.21502670509817
H         5.02374501910563    5.09341898184130   -3.19451488887843
H         2.18295857707168    3.79695636678849   -4.73549092743769
H         1.91568427918759    3.27338764468825   -1.92678667532815
H        -0.12242574970699    3.69938611703585   -4.14378153018913
H         0.68485634398389    4.99013698910698   -3.31478114054001
H        -0.46959798072884    4.35415617637365   -1.35857236577757
H         0.90658278145030    1.20978846632319   -3.92985894700632
H        -0.03552375877089    1.59683089652677   -2.48207822580075
H         1.61881992095547   -0.86658614773181   -0.49794076470278
H         0.53840426377479   -1.11681164209951   -1.88677411662988
H        -0.74671377648238   -0.10592369411619    0.01360874604930
H         0.47273554051834    1.07945528359504    0.01105635092485
H         2.39462607244925    1.91089416327242   -0.63682910105306
