35
 energy: -49.715238590944 gnorm: 0.117320523467 xtb: 6.4.1 (79825abcba525fcdf90b791dcacef51065a7a4e7)
C         3.60949585875776   -1.38960676839699   -2.74151018803987
C         3.03616846756397   -0.03406956233301   -3.12790255459791
N         4.04158540535462    1.05130184057443   -2.93558062247110
C         3.66473775929357    1.74480722367786   -1.90027169572851
C         4.12324154459924    3.14145963934266   -1.62406296358620
C         3.71448208186882    3.84112539866602   -2.92587159171452
N         4.49298034002225    4.65665613848814   -3.56500761932784
N         2.48270715129311    3.51178743731060   -3.46649794594728
C         1.29693695254974    3.02187239297921   -2.73722484520469
C         0.10967658336376    3.89136097824912   -3.22613613284296
O        -0.25279458805369    5.05735725706504   -2.48619473187227
C         0.90109908786700    1.53506214606105   -2.87498996716036
C         1.84809877914814    0.48030134352745   -2.23419126659434
C         0.99742284002118   -0.69549274676669   -1.66134283161693
N        -0.01216761350517   -0.23850300145373   -0.69367063244402
N         2.69293129054548    1.07438703609811   -1.17926131238825
H         4.53957887587714   -1.70740829023700   -3.22754049743302
H         2.97850941965053   -2.25841871693365   -2.95636827734297
H         3.78040058984099   -1.46518366033171   -1.66567219821295
H         2.71358980708034   -0.04515171195517   -4.17791904797680
H         5.21310855641835    3.12788346686479   -1.54237623844564
H         3.62661357826386    3.51069610257569   -0.72461919572057
H         5.47246105667024    4.78138436679501   -3.27994982299367
H         2.39761842895123    3.96023006684417   -4.38168355987574
H         1.46652556811564    3.23768150973489   -1.67363374836377
H        -0.83144137422733    3.34499159584118   -3.10611494782093
H         0.07790425558796    4.06625000028567   -4.30887510118860
H         0.10408157375137    5.91220681174256   -2.79399158278588
H         0.80347101321374    1.42198515705928   -3.96299391114054
H        -0.11459147100050    1.38298944529816   -2.48553975730302
H         1.69676069338386   -1.46235799600786   -1.32924700995237
H         0.42512787362253   -1.09197097677608   -2.50926040652598
H         0.04085667211479   -0.44858854625159    0.30003406698980
H        -0.98537644609898   -0.40597655246647   -0.95407851663455
H         2.19793063796795    1.65390466682819   -0.50443750441967
