35
 energy: -49.720740823596 gnorm: 0.107873290642 xtb: 6.4.1 (79825abcba525fcdf90b791dcacef51065a7a4e7)
C         3.32752160912681   -1.55169725290957   -2.42622758458363
C         2.82986095431607   -0.22122629958006   -2.97181476313625
N         4.01389493497505    0.66527914713987   -3.16688818668713
C         3.91656690986570    1.61470610110931   -2.28148198843407
C         4.69993871290604    2.88867226742526   -2.25926141588548
C         3.85355412636584    3.89819841905755   -3.04399847205051
N         4.45335439061818    4.86833852480234   -3.65939478300494
N         2.46953024379918    3.93397963174851   -3.07874638982480
C         1.33373678132150    3.18273789466341   -2.50996168986529
C         0.11696287167334    4.06928086947688   -2.88162641007223
O        -0.87945535669314    3.73999456903692   -1.91355243725632
C         1.22177971571648    1.74464470785921   -3.06279545253927
C         1.87921866986765    0.69731659315480   -2.11895776909818
C         0.94212488088145   -0.04593018070858   -1.11709148608730
N        -0.37552859918360   -0.38582905962511   -1.67634101899523
N         2.90122271780125    1.44274707041958   -1.35777572277971
H         4.03669481400694   -1.37190441459279   -1.60951124091823
H         3.86788604734018   -2.14847774414498   -3.16852227058127
H         2.56860774815790   -2.20207790338831   -1.98645215614817
H         2.43538697551636   -0.34869410970504   -3.98909381533408
H         5.70422013651493    2.85123181041450   -2.68901037371755
H         4.86972740033816    3.28828211399133   -1.25753402073867
H         5.47334869474598    4.81042514320098   -3.77099774189384
H         2.17522451846220    4.56591150363934   -3.82704569390851
H         1.30925568756058    3.34100250977619   -1.42326353505866
H        -0.18065082043636    3.94360376445746   -3.92769474190910
H         0.38787202374743    5.11978862136402   -2.71742825987748
H        -1.62595846814723    4.35288063102823   -2.05487137527201
H         1.61571565729688    1.71123496253093   -4.08737755322615
H         0.13120239780764    1.65524304843999   -2.96754130811250
H         0.78454441952500    0.56601960215076   -0.22932505913780
H         1.51909984061694   -0.90102134484995   -0.74346103755673
H        -0.82801804958239   -0.88992577035278   -0.91769990154666
H        -0.26168303145879   -1.06431846562421   -2.43111674714400
H         2.59150550446856    2.25323162639644   -0.82538157738880
