35
 energy: -49.720097212473 gnorm: 0.118111772434 xtb: 6.4.1 (79825abcba525fcdf90b791dcacef51065a7a4e7)
C         3.57928597171412   -1.29222241136311   -2.49550173277159
C         2.97451613108249   -0.04268395862733   -3.11871240103261
N         4.01584008800906    1.02569871612159   -3.10949886431223
C         3.71533646402653    1.76642980885983   -2.08195642587099
C         4.43946295681872    3.05020733356664   -1.82757272688095
C         3.90852106971837    3.71873070942041   -3.10134642136390
N         4.64384451776858    4.24232779142695   -4.03128746621344
N         2.55560985990021    3.92608431977030   -3.31264148537525
C         1.47343553615951    3.18477340877038   -2.63642861184163
C         0.18063368921165    4.03894108812258   -2.69719701311489
O        -0.81709830382406    3.51138081304079   -1.82275033970276
C         1.14864137688387    1.77780718779936   -3.18526952710673
C         1.80923892872709    0.65963113533603   -2.32897233760058
C         0.82650330134532   -0.26705669738051   -1.54809020879223
N        -0.41952201367714    0.36939629015690   -1.09328203680280
N         2.68276752846076    1.26953771751090   -1.30695535784199
H         4.09109388887749   -1.01919419442542   -1.56502554841004
H         4.26881078902479   -1.71227506434033   -3.23526749049831
H         2.77761747288931   -1.97452753655587   -2.20544139219074
H         2.69114376270699   -0.24606401380036   -4.16037024859754
H         5.52847131580621    3.00687963598437   -1.74480409694084
H         4.00390338716333    3.45063004308473   -0.91000881856832
H         5.66758498015029    4.15997271126533   -3.99426491826090
H         2.39441085627435    4.45631650922477   -4.17216129355639
H         1.73292693621140    3.23926473267627   -1.57047608119116
H        -0.11808958413762    4.06394180955621   -3.75017705311201
H         0.37318438860091    5.06206087123279   -2.35068659726530
H        -0.66999489472522    2.58272176081304   -1.56041427462421
H         1.30836238425673    1.71428539154136   -4.26994661163257
H         0.05630295505660    1.68149356668088   -3.12245763257600
H         1.37607808261902   -0.60328927176573   -0.66925087375313
H         0.68788454340705   -1.10831923499458   -2.23855591607873
H        -0.75030033012960   -0.23857049208268   -0.34805815355799
H        -1.10675911444698    0.21632172624027   -1.83305796888118
H         2.15291752360304    1.68042072285687   -0.54099999616140
