35
 energy: -49.713622819295 gnorm: 0.119692132056 xtb: 6.4.1 (79825abcba525fcdf90b791dcacef51065a7a4e7)
C         3.66086620937468   -1.33485070294499   -3.16003663263537
C         3.13311566506098    0.09218547232479   -3.18309216032092
N         4.22439182604435    1.08095860821253   -2.94366360665622
C         3.82163008434634    1.70118248511335   -1.87224689678266
C         4.21100366407490    3.09062318654729   -1.47854937429752
C         3.59012998062274    3.78708870212504   -2.69541988486788
N         4.31284741240933    4.44036660821608   -3.55014340754160
N         2.25288692592061    3.66352967265116   -3.03383382731038
C         1.04644293449911    2.95440691048191   -2.56527778870079
C        -0.15787113466701    3.72902384742093   -3.16044840345124
O        -0.01150636459115    5.12072250650337   -2.87725561021657
C         0.99968953353994    1.48987418510071   -3.05438877663841
C         1.93860796771091    0.53659461086337   -2.26088898364779
C         1.11740872324217   -0.58294667240868   -1.54916173170008
N         0.06385452171254   -0.02121088793449   -0.68952318788311
N         2.70535425589481    1.22835848695180   -1.20584404384418
H         4.19120138668807   -1.53866080388406   -2.22222869713656
H         4.39725578061871   -1.40730851640443   -3.96726791671012
H         2.78738826232270   -1.98323140235283   -3.25483332073099
H         2.84217962512171    0.29741209508715   -4.22229987883285
H         5.30116845908247    3.02943517875568   -1.52818699601216
H         3.88345489306386    3.23576248939178   -0.44722964755709
H         5.29137391748128    4.41931248508596   -3.23671052595193
H         2.06224197411850    3.94501498201425   -3.99836797363945
H         0.90406038466930    2.91944700935638   -1.47667092943795
H        -1.09524539859926    3.47988212548064   -2.65262413718253
H        -0.19189202678573    3.74317095216381   -4.25706217696189
H         0.03600158517475    5.26061561019162   -1.91235137901924
H         1.16935647258296    1.40780551846099   -4.13630747308436
H        -0.05613123860598    1.23584857507846   -2.88965151538401
H         1.75156936232117   -1.17413779499510   -0.88902788168868
H         0.79663793396285   -1.27121369422752   -2.34104260484142
H        -0.36231565300415   -0.61674757676107    0.01624700861754
H        -0.76745163475777    0.24691388138682   -1.21870582732181
H         2.10504914032546    1.68717184467072   -0.52365817273039
