35
 energy: -49.715556741847 gnorm: 0.119250522318 xtb: 6.4.1 (79825abcba525fcdf90b791dcacef51065a7a4e7)
C         3.58827717981830   -1.41128834317037   -2.81273524358839
C         3.03965582399114   -0.05010628665340   -3.21483282149883
N         3.99257678581412    1.09264886366935   -3.10558855602681
C         3.75399302840114    1.59883505255473   -1.93013896164931
C         4.07036555616325    3.02652448171301   -1.61586799839022
C         3.57216806359789    3.94583577681529   -2.73746871276548
N         4.18299860828114    5.03540258567389   -3.08297558868036
N         2.36914325799547    3.62482665567107   -3.34384672666082
C         1.26258783364186    2.98581328856972   -2.60553514433008
C         0.01976189450292    3.76091137406719   -3.11468982907774
O         0.31193092104287    5.14281477883696   -3.32307937287864
C         1.01351995745732    1.50751368551804   -2.97818379063111
C         1.88877750876977    0.44009617717047   -2.26090018519954
C         0.98620147989801   -0.66713293150027   -1.63344758006051
N        -0.00645306839598   -0.10134501382334   -0.70661266845740
N         2.74674498846392    0.99776135474247   -1.19672994214344
H         3.93050232828177   -1.38317269460197   -1.77140477785607
H         4.30875428640407   -1.63265174076273   -3.60712373142055
H         2.84855018911017   -2.21025346718795   -2.89523600376536
H         2.54826623445099   -0.11776106276360   -4.19497236589288
H         5.15860287922958    3.08179579230674   -1.53012569330977
H         3.65091529060036    3.28901608252113   -0.64266009352797
H         5.18297178787051    5.07457766428634   -2.84905998021810
H         2.08710992469625    4.18589272125641   -4.15104413624800
H         1.31974491762235    3.18154438736013   -1.52619169391480
H        -0.81800641892483    3.63180942924024   -2.42179406650777
H        -0.19305302112056    3.24900657211515   -4.06157029805961
H        -0.07693329669401    5.73088012221975   -2.64792677371985
H         1.27436943081164    1.29210100307247   -4.02299245506937
H        -0.02519066121041    1.17664000709668   -2.84391641365537
H         1.57953042833825   -1.41825735408967   -1.11266334801254
H         0.43601240011160   -1.23292835383047   -2.39558157183659
H         0.44165491970743    0.24209779206797    0.13934407288053
H        -0.58675292599897   -0.86216024183817   -0.34967100616189
H         2.14333919598543    1.62841218134204   -0.67286499679214
