35
 energy: -49.726262063768 gnorm: 0.124391693144 xtb: 6.4.1 (79825abcba525fcdf90b791dcacef51065a7a4e7)
C         3.58293054297768   -1.45017102582037   -2.85098212615298
C         3.01559419772884   -0.06518643491641   -3.12563024285105
N         4.04845551287527    1.00784796534719   -3.03801359777909
C         3.64879232746468    1.71522685914724   -2.02080522950619
C         4.20278198306721    3.05027169776123   -1.63622014542512
C         3.63498710347609    3.92868348270236   -2.75752470284954
N         4.24116666683628    4.90503269509452   -3.35663517804896
N         2.45425887656933    3.47024813634617   -3.31763873634896
C         1.20332703826155    2.91021647173964   -2.77042668308440
C         0.01364989128310    3.75284784539605   -3.29888905390245
O        -0.02857286377299    4.99791454033468   -2.60141351896144
C         0.93437041225728    1.41797350385473   -3.06562962442252
C         1.79297727246763    0.40547120543478   -2.25471345878973
C         0.97033578214600   -0.64257158975250   -1.44282441412754
N         0.15675959744928    0.05653397852707   -0.43592463271894
N         2.65218686087276    1.10592643308347   -1.27968612301822
H         4.47365445008583   -1.65913200753365   -3.45531970290523
H         2.81652394524435   -2.10975363078775   -3.27135552750155
H         3.81546140487985   -1.58757946192274   -1.79296701091870
H         2.82749794638896   -0.00839089871982   -4.20642091987626
H         5.29497897391374    3.09217100194063   -1.64038167526598
H         3.78652376855992    3.38759828016680   -0.68495052961806
H         5.10373130587294    5.14677559539964   -2.85290888088037
H         2.27340705855841    3.94867729407096   -4.20324799413999
H         1.26167657988022    3.02954647605285   -1.68005263809811
H        -0.94596970690309    3.27083119983696   -3.08577459767460
H         0.10717902335503    3.92306971475490   -4.37879467119360
H         0.73544929420348    5.56507149044165   -2.81929053968388
H         1.10975878509298    1.27450905267385   -4.14021190049996
H        -0.10344642563227    1.10483661626887   -2.88869356818222
H         1.73117894485781   -1.20925748455707   -0.90670116024847
H         0.51966652340710   -1.21709892500998   -2.26166278056242
H        -0.36701249219369   -0.67889372265162    0.03226916686916
H        -0.40709278801375    0.73726872796012   -0.94745740294305
H         2.08723396109393    1.57053302481407   -0.57171548639604
