35
 energy: -49.722396481870 gnorm: 0.113143518448 xtb: 6.4.1 (79825abcba525fcdf90b791dcacef51065a7a4e7)
C         3.22263888585435   -1.52209679715546   -2.72027747762000
C         2.79973006391509   -0.11341128306778   -3.11045393255308
N         4.00559149902602    0.76239732311247   -3.17929770063742
C         3.82151130115341    1.56038568587395   -2.16729106112910
C         4.47946814780855    2.89222497607026   -1.99278667609609
C         3.84614748451043    3.88268835180513   -2.97727099939990
N         4.33680053037126    5.04238543260359   -3.28387668894467
N         2.62525667467452    3.51319362230371   -3.51663089032702
C         1.40721144963895    3.17582169844378   -2.75475625362982
C         0.24216797129112    3.89444534688845   -3.48337520579381
O        -1.09160785310624    3.81643840313153   -2.97998379333516
C         0.93415831631451    1.70643916737463   -2.81312758743479
C         1.80397452982567    0.61141875109705   -2.13173073335987
C         0.89272483732492   -0.33747645200232   -1.29297069046907
N         0.53021403089169    0.32442668832452   -0.03004863810165
N         2.82277466661646    1.23774109385690   -1.26609598431110
H         3.60468033059429   -1.42312091647278   -1.69727904778858
H         3.91726736999528   -1.86032258028537   -3.49631656581741
H         2.34584686797619   -2.16465627004420   -2.82372187804928
H         2.35289373804247   -0.10693633196714   -4.11395269997001
H         5.55997478611610    2.78620833125502   -2.11901262272609
H         4.25047300042191    3.31989591634706   -1.01471061544611
H         5.29668395978319    5.18360988966245   -2.94494157075570
H         2.45445690879510    4.16390340600717   -4.28689695409241
H         1.51107010757414    3.52639348541819   -1.71896058455201
H         0.26209888357844    3.50879532016716   -4.50782843163779
H         0.48593583866126    4.96298538845811   -3.53551671500721
H        -1.28676634438109    4.40484747290159   -2.22595780747364
H         1.03691766155152    1.53113798444076   -3.89237742859394
H        -0.11220648768491    1.69304161240284   -2.47941206754159
H         1.38585669836033   -1.30432446733749   -1.19566071514540
H         0.04043541286522   -0.56938518807840   -1.94374083226165
H         1.24316456295513    0.07406425412875    0.65069854553215
H        -0.32508949144947   -0.17303323545787    0.22290312721831
H         2.41025411502674    2.00847412684899   -0.74451103034964
