35
 energy: -49.719839453141 gnorm: 0.121390130162 xtb: 6.4.1 (79825abcba525fcdf90b791dcacef51065a7a4e7)
C         3.66483413310237   -1.44809236414495   -2.30116521879715
C         3.25866950576251   -0.18275827885625   -3.04241039155942
N         4.13841211846818    1.02220074670715   -3.03946147922745
C         3.69889700899136    1.68775780783348   -2.01053548814983
C         4.13641093676585    3.09787742053162   -1.77116301556557
C         3.60162583034100    3.89449447818766   -2.96729358403918
N         4.31067669089616    4.64432950569717   -3.75128281125646
N         2.24333683500716    3.84082146383586   -3.23220875787176
C         1.23014779243092    2.91089638178646   -2.69686375519492
C        -0.11547970937274    3.67129476264542   -2.82221432042812
O        -0.13257896308391    4.76937541462734   -1.90986983634573
C         1.24919834051538    1.48628304518119   -3.29384403344704
C         1.98285402582902    0.46000172442224   -2.38365300830633
C         0.86177043509452   -0.50823765348683   -1.89377477345158
N        -0.18501061526933    0.27152233886074   -1.21500693761689
N         2.67549620669810    1.13010967571372   -1.26527958483086
H         3.74775107261252   -1.37773776341845   -1.21008653545010
H         4.67168556335010   -1.64477812680708   -2.68418871022733
H         2.92693648874429   -2.17448664142387   -2.64787272139741
H         2.96898245771303   -0.40382488212505   -4.07871411376034
H         5.20798605348274    3.30140302346196   -1.84167003235802
H         3.61006881559032    3.44901627242011   -0.88142176999740
H         5.29845401299088    4.64799918258431   -3.46759273019058
H         1.98482133593773    4.20405734343724   -4.15260814057615
H         1.20207845950345    2.88571047836004   -1.59907613110301
H        -0.96630577735050    3.08564206757906   -2.45926319953904
H        -0.18467119571900    3.98271418848711   -3.87204755048605
H         0.75053803735332    5.17972627195986   -1.84216608435930
H         1.81651968390828    1.52207964641407   -4.23349040885830
H         0.21382567792076    1.15567317524672   -3.45235407858608
H         1.38407912440106   -1.27389370779028   -1.32070600979473
H         0.42165728011255   -0.95272892799887   -2.79511191162216
H         0.19097193946074    0.52307962595080   -0.30409937319954
H        -1.11535058877936   -0.13795922313101   -1.11607529532122
H         2.09398892406415    1.72188703270517   -0.67544712327596
