35
 energy: -49.716941130104 gnorm: 0.119459116894 xtb: 6.4.1 (79825abcba525fcdf90b791dcacef51065a7a4e7)
C         3.70528362399386   -1.41893906607837   -2.35804141476954
C         3.02278562023439   -0.31163767381450   -3.14770245857145
N         4.08347214086033    0.73588627483234   -3.20702947468598
C         3.83899697793410    1.50706750962326   -2.18705898030699
C         4.42425031174242    2.85411073482257   -1.90402541272189
C         3.55450890978169    3.91794377713171   -2.58456294324308
N         3.96810960916385    5.13265651656684   -2.76636568024228
N         2.31655621492996    3.71052126977582   -3.16976280244471
C         1.20877516487921    2.84103018751170   -2.72849939644512
C         0.00262627509086    3.64349526581155   -3.28156947782293
O        -0.15159415453733    4.90733440229655   -2.63552562246041
C         1.12848909013627    1.41289625585517   -3.31181678963056
C         1.84827449936145    0.39781924016547   -2.37828621392769
C         0.87834555588144   -0.42907012966579   -1.47840378005306
N        -0.20555458197435    0.42027861677081   -0.96045669777453
N         2.77366259594748    1.05110675088276   -1.43148672672253
H         4.70269780994422   -1.54955932459298   -2.79436810090114
H         3.15754121080512   -2.35262704693998   -2.52341096283688
H         3.89114799821554   -1.21943039480429   -1.30068698371468
H         2.78306474804903   -0.79179398292528   -4.10618993668015
H         5.41281382300132    2.94949678026386   -2.36043621657253
H         4.40018689285829    3.10938010621144   -0.84278439471475
H         4.97263364675774    5.34616122596153   -2.72706227288015
H         2.11251418938995    4.57635519587263   -3.67434586598714
H         1.14919138623650    2.88953406197302   -1.63275442707219
H        -0.94894305929524    3.17581737078072   -3.00876773865631
H         0.03910621860580    3.84841918414536   -4.35887850303528
H         0.77717186166541    5.18483035661992   -2.52038681397564
H         1.55896517155448    1.26161274581983   -4.31075315127173
H         0.07914918674157    1.09465650778463   -3.37533143844824
H         1.53279644280391   -0.66283549637691   -0.63906406152317
H         0.49243602325660   -1.28711670340466   -2.04277123159932
H        -0.68782206715491   -0.08533735444517   -0.22142550629548
H        -0.89852353829756    0.77702172364537   -1.62039871481593
H         2.40599550387704    1.73641736921393   -0.77465816771056
