35
 energy: -49.720075246811 gnorm: 0.110824177062 xtb: 6.4.1 (79825abcba525fcdf90b791dcacef51065a7a4e7)
C         3.56305418231988   -1.46832944844685   -2.68280575335273
C         3.11897206257578   -0.09316620400843   -3.15946237923750
N         4.13006320440890    0.98428058617744   -2.95285868023942
C         3.79063668938812    1.67952814818464   -1.90583965079067
C         4.14093848742869    3.06777840379786   -1.47316798634736
C         3.63837860669668    3.84867002593036   -2.69339910843250
N         4.25801552085108    4.70803448317906   -3.43984910890888
N         2.37127676411280    3.58015094148521   -3.18366458760952
C         1.18647843687149    2.89857223716289   -2.62723816859512
C        -0.01070524899127    3.71293568887606   -3.18239150602194
O        -0.02063444529123    5.00122442299899   -2.56703834687401
C         1.08792057821302    1.46821081299377   -3.20223737081983
C         1.89075293093234    0.45142073440029   -2.34110450265159
C         0.89935052978697   -0.60460051931084   -1.76124511858493
N         0.02380987241603    0.16856247426840   -0.86673435393463
N         2.65972107405578    1.16188439298123   -1.30019803018764
H         4.43073549975652   -1.84276327969912   -3.23886879927019
H         2.80637703238840   -2.23434336013736   -2.88231627942126
H         3.86128305551809   -1.44726002302607   -1.63258516820705
H         2.84130650983808   -0.13515378314625   -4.22146675133219
H         5.18840652211491    3.33590414426625   -1.31321044698923
H         3.44880895776209    3.27713384357665   -0.65518203980574
H         5.22535345434626    5.02680949885336   -3.30259985430592
H         2.25550291829270    4.11220883433698   -4.04935298781842
H         1.19694234990271    3.08753904330325   -1.54522988434688
H        -0.97818013191764    3.33245233557842   -2.83909518624293
H         0.02765375812739    3.86352808564861   -4.26856361187078
H         0.65647354234564    5.56648443509033   -2.98521672127235
H         1.52058385248450    1.46335622092855   -4.21161793605362
H         0.03172972800821    1.18458211565679   -3.10005849526007
H         1.46939868080927   -1.38318587250774   -1.25499093044354
H         0.25026094499207   -1.16438005499438   -2.44608836130084
H         0.03479188917988   -0.08074362977517    0.11922832082070
H        -0.96261791186633    0.01150248477333   -1.07954288067297
H         2.24990193179555    1.57853548140155   -0.46670921997653
