35
 energy: -49.726372593728 gnorm: 0.110648963775 xtb: 6.4.1 (79825abcba525fcdf90b791dcacef51065a7a4e7)
C         3.69217403477548   -1.34158561523491   -2.79826968944707
C         3.04788780499296    0.01192723242843   -3.05977042629544
N         4.09288338780840    1.04631385417920   -2.80696509606774
C         3.68302223389825    1.78410179506517   -1.81574806487380
C         4.09154971199041    3.19984246735521   -1.55896296601075
C         3.63469923234218    3.84093056982618   -2.87487172667104
N         4.33086012729452    4.63309746548146   -3.62818203018947
N         2.41087758570827    3.42684804819514   -3.37367635234224
C         1.13028894411854    2.98820798569111   -2.78580345675873
C        -0.03071368508804    3.89597701104639   -3.26815195321890
O         0.29092318364370    5.18770011762296   -2.75196681907765
C         0.86331909238764    1.46896460040202   -2.86885825525783
C         1.85431968106207    0.50199287746838   -2.15974956491924
C         1.05360212336555   -0.66843162436825   -1.50916953228538
N        -0.26918090282625   -0.39541538436441   -0.92589503686987
N         2.58051591159626    1.28844442308662   -1.14304414370064
H         4.61402730904774   -1.39379332161134   -3.38965668019455
H         3.10145833774438   -2.16501178135331   -3.21319906433926
H         3.84114552466358   -1.50219225225307   -1.72852174650933
H         2.71095842362250    0.07786575969735   -4.10324783815618
H         5.16262588232654    3.38019160245892   -1.43674527874388
H         3.56133198481796    3.59968383548029   -0.69237769120289
H         5.26667418226883    4.75137927571218   -3.22018811506915
H         2.37557207232883    3.44327583733204   -4.39562998605854
H         1.16171068563135    3.23943917807436   -1.71694638552336
H        -0.98140563399900    3.57665542877839   -2.82900946171911
H        -0.02385464483332    3.85254126648859   -4.36450299720019
H         1.23128396759834    5.29000496514433   -2.99305306088262
H         0.68105181099119    1.33886548119199   -3.94399687208970
H        -0.13337724385218    1.26604633273822   -2.45431580305331
H         1.67691512957337   -1.34629462165574   -0.92656676041081
H         0.87997890309171   -1.22383473780904   -2.43925720308577
H        -0.25052782291138    0.07754447390687   -0.02569641137473
H        -0.72228136965118   -1.30671761115462   -0.84090503607622
H         2.05264552137358    1.79972242035727   -0.43862868960710
