35
 energy: -49.720912973163 gnorm: 0.117459585368 xtb: 6.4.1 (79825abcba525fcdf90b791dcacef51065a7a4e7)
C         3.55027778662702   -1.55552601892304   -2.60378054822426
C         2.93346925443589   -0.28757517738902   -3.17591022219720
N         3.98555673091320    0.76254325153122   -3.30336705396258
C         3.87341288230724    1.53832707042975   -2.26393853986948
C         4.46126829446842    2.89475795919342   -2.03661458828961
C         3.53359453531586    3.96041300051168   -2.63253647478645
N         3.83277595285840    5.22012684990765   -2.68960045125002
N         2.27183899267921    3.69975604623438   -3.14051356895333
C         1.10749754994301    2.92158418484328   -2.67504119701424
C        -0.14207662576247    3.58556390687981   -3.30933383942124
O        -0.03685815694917    5.00739585621563   -3.23338026572847
C         1.08825341285966    1.44381971480445   -3.12461142394223
C         1.90225505969599    0.45141665817180   -2.24569776762060
C         0.96724465200332   -0.50723395159804   -1.44504732423344
N         0.16989531513744    0.25856298213109   -0.47433053927594
N         2.85972832060003    1.18260341083160   -1.39237025080131
H         4.21983656556160   -2.00168986675591   -3.34870104701477
H         2.69173227821187   -2.23222859304921   -2.53962975374890
H         4.04544717772041   -1.29084843344356   -1.66724399147772
H         2.53500950125589   -0.42666254434552   -4.19010890142620
H         5.42008722476942    2.98050406671685   -2.55428339988067
H         4.46050456220154    3.01248862053640   -0.95120548899486
H         4.76420974001184    5.45988259159170   -2.32745980716392
H         1.92585604969860    4.40408466104670   -3.79635089847274
H         1.00308929298072    3.03796707814123   -1.58779061657983
H        -1.09388664991207    3.18850834580045   -2.94186662633556
H         0.04499978687366    3.46959339952041   -4.38426295308190
H         0.61141459370593    5.32981718448333   -2.57866338920806
H         1.65108862755331    1.48532578575543   -4.06671757216714
H         0.10583030332431    0.97032982384415   -3.25529054462341
H         1.59321506929932   -1.28113387777350   -1.00155740721212
H         0.23284998903961   -1.01552719156012   -2.08221541432926
H         0.76326187059594    0.73516760164538    0.20032545247843
H        -0.54787447063709   -0.35537340743522   -0.08589298780926
H         2.41611731151887    1.78186619883853   -0.69929964112346
