35
 energy: -49.716725003783 gnorm: 0.111439819284 xtb: 6.4.1 (79825abcba525fcdf90b791dcacef51065a7a4e7)
C         3.56009356269918   -1.48513185667233   -2.61577080935543
C         2.92999841831827   -0.18907028034635   -3.10432884519261
N         4.01379114651438    0.82958786434420   -3.22099469600621
C         3.82887086170092    1.60885349190950   -2.19465265163339
C         4.38009369185469    2.92099533011220   -1.73466119705193
C         3.63843113366553    3.93234845380523   -2.61694443574835
N         4.13371787259143    5.08522111257333   -2.94132152331152
N         2.40563335276031    3.60727502125953   -3.15782034628317
C         1.19058686663358    2.98901427720086   -2.59273390999086
C         0.00800916926478    3.76207277049104   -3.23189148923247
O         0.01666739759061    5.17331156934277   -3.01561377608974
C         0.93868043443285    1.51174016218176   -2.96753506828397
C         1.85723724856275    0.51979260560618   -2.19796041539718
C         0.97811341621528   -0.59266695934404   -1.54690619886730
N        -0.30736783367150   -0.17701060057167   -0.96443754969214
N         2.83100370167711    1.20553978334198   -1.32555760522653
H         4.29694319578977   -1.80817794587862   -3.36073492115906
H         2.83533944971127   -2.29868408891569   -2.50619744199784
H         4.09110755735545   -1.42447669612003   -1.66356665306907
H         2.55440162197117   -0.36466381495438   -4.12158416447661
H         5.43821445972810    3.13724019175800   -1.90284486765696
H         4.25378003200153    3.05133395147020   -0.65807831388221
H         5.12119543848511    5.21744966275120   -2.68912867636569
H         2.16570942159052    4.31862509385966   -3.85231526290775
H         1.24312455736694    3.02977222196288   -1.49631315303063
H        -0.97348125515036    3.37059989598082   -2.94544230811397
H         0.04257616408856    3.69076983676253   -4.32625904657429
H         0.84414603619513    5.54919449855197   -3.37178562681210
H         1.12484317715119    1.37840220276877   -4.04160892235622
H        -0.11242909764179    1.27948493256344   -2.74924365548091
H         1.61642847786232   -1.00995141908532   -0.76852908416629
H         0.65577601525181   -1.13280533988125   -2.44581100629957
H        -0.17831296671682    0.15890088947906   -0.01317268048280
H        -0.76899380386835   -1.08234837119213   -1.06572957691429
H         2.42411020526014    1.93552463751251   -0.74434052881797
