35
 energy: -49.721522621997 gnorm: 0.115811573930 xtb: 6.4.1 (79825abcba525fcdf90b791dcacef51065a7a4e7)
C         3.67230731333725   -1.46686716442834   -2.83449161986010
C         3.17644331508485   -0.05407613340596   -3.10583058405307
N         4.16474748481189    1.01457367236060   -2.77853185096609
C         3.63598807020551    1.73128443229565   -1.82902271711834
C         4.10489535938248    3.13246996991825   -1.59672982291161
C         3.60633649309526    3.88354692112834   -2.83715098696939
N         4.16519584251015    4.88497946897454   -3.44085114981724
N         2.34060838396474    3.56342471537025   -3.29917259429577
C         1.17725623254496    2.83467209250326   -2.75747309313788
C        -0.00733484796352    3.78328727863697   -3.07607162874731
O         0.04150207389608    5.07894789882029   -2.47830540192015
C         1.00415736729939    1.35445816255813   -3.16401341264891
C         1.89859987588741    0.40796473155028   -2.31308775123837
C         0.90055799635697   -0.65355297337834   -1.75506522835088
N         0.19667779523329   -0.00846401291229   -0.63572842374145
N         2.55054096339736    1.13915926555385   -1.20860402057920
H         3.99562045844556   -2.02769840327995   -3.71948574891983
H         2.78814701812743   -2.03093325696398   -2.51948035545979
H         4.48861555359811   -1.50868243950669   -2.11044741982758
H         2.97406824274922    0.03675453319176   -4.18170629380036
H         5.18466873564410    3.15104031116722   -1.76528768224962
H         3.76620117568999    3.52473078181633   -0.63579709887257
H         5.15464136174520    4.95952375587066   -3.17319786543025
H         2.21144911146201    3.95271066179639   -4.23601832876230
H         1.17908017175774    2.94417710485334   -1.66451142160635
H        -0.96806482580573    3.31300295859598   -2.84270890726912
H        -0.00640865484048    3.95480382987657   -4.15981539188023
H         0.94357627657407    5.40709038501744   -2.65565224398303
H         1.20405625427214    1.20251788863045   -4.23313678742819
H        -0.05862402647060    1.15958686242872   -2.96666661002483
H         1.36902038251459   -1.45060103539566   -1.17826306007246
H         0.29567254101706   -1.05708740879154   -2.57662122361343
H        -0.50849479114455   -0.65297611422083   -0.28682683951541
H        -0.28773235592102    0.81440365416483   -0.99798619886325
H         2.07870788256178    1.60483349415219   -0.43609218748970
