35
 energy: -49.715028101235 gnorm: 0.113591468390 xtb: 6.4.1 (79825abcba525fcdf90b791dcacef51065a7a4e7)
C         3.77701634660181   -1.36208064450681   -2.79694282537888
C         3.08595415140292   -0.06386616817272   -3.18752785756768
N         4.05052385221171    1.05994105868911   -3.00712658823542
C         3.70511927720767    1.72858882523122   -1.94484871742806
C         4.18640654196354    3.10385648539483   -1.60697834969825
C         3.62959222065316    3.93938881679214   -2.76592861549774
N         4.32893520614845    4.72132554793548   -3.52694053374457
N         2.31522862937613    3.73799301417505   -3.15309513092980
C         1.17843532650991    2.95715919872832   -2.62782710890794
C        -0.09411919893963    3.74213410307834   -3.03898549857919
O        -0.13201174425134    4.96451802107060   -2.30224424436514
C         1.06579435338343    1.47840903948513   -3.06012505032648
C         1.87549389012113    0.39396252377170   -2.29310867651738
C         0.79767448504871   -0.63583906407048   -1.83255402518408
N         0.18200369807096   -0.15402176056613   -0.58623803446890
N         2.67311018275319    1.10028516320760   -1.27111379921129
H         4.19545036548840   -1.31227164022971   -1.78466335965615
H         4.59273413405118   -1.20787944748548   -3.51106366502235
H         3.30931562934511   -2.28850765255393   -3.13655540318067
H         2.82935923927341   -0.23287427749638   -4.24218881338300
H         5.27817102324040    3.05197132155227   -1.61201719083726
H         3.86507566007189    3.31661552938034   -0.58548236473926
H         5.32380865346986    4.69325051441997   -3.27074494109876
H         2.19763878780778    4.10692346490259   -4.09965128113012
H         1.14503316574173    3.06916180191681   -1.53562767695882
H        -1.05060666978234    3.23425969174796   -2.87829046451202
H         0.05421555683349    4.01001171464937   -4.09262572224818
H         0.37488744891975    5.61299112175152   -2.82703287587419
H         1.30133329575476    1.49316513885182   -4.13267988712300
H        -0.01080797102024    1.28788605287706   -2.95499036493796
H         1.17039626222338   -1.59818620556690   -1.48268288436749
H         0.19687628469316   -0.81247820213527   -2.73339854575540
H        -0.41974896344723   -0.84684934115908   -0.14774035313062
H        -0.39030959928854    0.65051101738562   -0.84735024378474
H         2.05984840753178    1.60103576397048   -0.63126043987212
