35
 energy: -49.722501384886 gnorm: 0.097911481302 xtb: 6.4.1 (79825abcba525fcdf90b791dcacef51065a7a4e7)
C         3.56638753286684   -1.52559574856226   -2.58983475323283
C         3.05139194269617   -0.20744275158191   -3.14906340791459
N         4.12876122815464    0.82241823461118   -3.08165577020712
C         3.85659469793008    1.60446838584920   -2.07709050790091
C         4.41890511750945    2.98699728447285   -1.97923466683745
C         3.51313142127110    4.02574412464649   -2.65147063865153
N         4.00842911487536    5.21156772154903   -2.81924252251197
N         2.29101677236113    3.68722806032126   -3.20811460010347
C         1.15485724370139    2.92522346317842   -2.65458275201293
C        -0.11741201718825    3.57968399042542   -3.25261637488376
O         0.06458124230255    4.98336304681363   -3.43972470857943
C         0.97230819843717    1.42126804493455   -2.95635337437938
C         1.92007572570002    0.41138260294985   -2.24796093897705
C         1.01897214604693   -0.59071057364428   -1.46175599422678
N        -0.04433460411874    0.22047707410875   -0.84868556417558
N         2.80119354161716    1.13915115708513   -1.31332662487830
H         4.27117082614108   -1.77368807425096   -3.39233609235597
H         2.77616687978576   -2.28291152601315   -2.62398471063900
H         4.05823245714543   -1.42045244476883   -1.62061799354232
H         2.67392306636663   -0.32302093180926   -4.17418455429634
H         5.32077941168834    2.93013279035357   -2.59409752738512
H         4.71181542671359    3.35826563849451   -0.99519332810442
H         4.96753885409427    5.27337592474715   -2.45525650385998
H         1.90559896940299    4.33734397273824   -3.89710517842175
H         1.03761544513808    3.16258571617676   -1.58852767811457
H        -0.90431182722632    3.23698248322697   -2.57293117506240
H        -0.34229136164311    3.18156307262418   -4.25003722640264
H         0.52509305670316    5.39947328098501   -2.68630025747528
H         1.11164971659589    1.31130135941959   -4.04012525707634
H        -0.00783897197234    1.09071418018148   -2.58693416232502
H         1.65723606868504   -1.10178062277046   -0.74142971840832
H         0.51605616727804   -1.27107928161006   -2.16022192862234
H         0.23813504959100    0.55701705717912    0.06856482522396
H        -0.84357749243426   -0.38445911383278   -0.65308877682489
H         2.29523722248142    1.65962106310682   -0.59962306712939
