35
 energy: -49.721684917794 gnorm: 0.114943735791 xtb: 6.4.1 (79825abcba525fcdf90b791dcacef51065a7a4e7)
C         3.75450247055538   -1.36883862061878   -2.68808135753529
C         2.92657848849209   -0.16330964633784   -3.10846953246906
N         3.88007138231788    0.97751419800931   -3.23197772889591
C         3.71619405035738    1.65382638025795   -2.13171663064627
C         4.34223596056445    2.96609868915149   -1.78076382746445
C         3.73772454289230    3.89938754676764   -2.83663315826396
N         4.42650032347486    4.76226376734928   -3.51536531877490
N         2.42399094854548    3.65826953314611   -3.20266042534545
C         1.24258718190086    3.00669289958205   -2.60463035399684
C        -0.03951843107736    3.73212877958209   -3.08896473342315
O        -0.23315153881932    5.03629846545538   -2.54115674169953
C         1.01259080983226    1.51386397233807   -2.92841265091738
C         1.84710009025265    0.45837290643957   -2.14771773378301
C         0.92460078975565   -0.59974620301595   -1.46678047748067
N        -0.43377189707399   -0.11620835207498   -1.17434799296892
N         2.80920221921919    1.11213933165288   -1.23859403554074
H         4.63627508246302   -1.40813322173431   -3.33862780352535
H         3.14203506502081   -2.26737968316186   -2.55904758040039
H         4.10845956030052   -1.27038744154231   -1.65979666374849
H         2.59099544123966   -0.27466512985427   -4.14851683811283
H         5.40448640303862    3.14646583647810   -1.96449960724784
H         4.06037344028096    3.25567766305795   -0.76652936703638
H         5.41641878914481    4.88402699320184   -3.26750909841573
H         2.23815216580708    4.30178017061280   -3.97548873677569
H         1.36267072953499    3.24234097266325   -1.53851131533888
H        -0.91776401767921    3.17568123929242   -2.74592185693609
H        -0.17326273809335    3.77271402097502   -4.17725909467663
H         0.69018226235147    5.34685228707068   -2.60343256064564
H         1.24489219920897    1.41825630025221   -3.99750827215805
H        -0.05480993422286    1.31000089015443   -2.76866171514169
H         1.54663949887241   -0.92340942823228   -0.63266218460338
H         0.81053974898328   -1.48736959862378   -2.10144219112455
H        -0.38438196319632    0.65922662811485   -0.51810279262019
H        -1.04739324582939   -0.83953679025225   -0.79585110542064
H         2.43305016893478    1.68865498823600   -0.48866549216620
