35
 energy: -49.715800563860 gnorm: 0.134165630107 xtb: 6.4.1 (79825abcba525fcdf90b791dcacef51065a7a4e7)
C         3.60664146889295   -1.50333681868402   -3.01172198041418
C         3.02420040482435   -0.09793813323588   -3.04490840415896
N         4.13181987810019    0.88001050668751   -2.83832296730305
C         3.74580462820472    1.65626702165014   -1.86711421528018
C         4.25493831534776    3.04836626708918   -1.66712054753361
C         3.60301311479482    3.86097633319064   -2.79227858191884
N         4.14473645824806    4.88706349232401   -3.36962230502409
N         2.44675158099406    3.40240403971352   -3.40119613506320
C         1.25497398588043    2.96536450837060   -2.64848793915601
C        -0.02993999846615    3.66509775770261   -3.16229849233751
O        -0.15878995433886    5.00648996876097   -2.69058821349070
C         1.02127382973381    1.49128735592981   -3.04692533120224
C         1.85208507105678    0.49995310135671   -2.18265641653003
C         0.85607791533572   -0.55101103967685   -1.60150182387097
N         0.16676800939481    0.11764838728486   -0.48693984755307
N         2.70183408173315    1.11102488815086   -1.14146728667218
H         4.44915296408960   -1.58095985576804   -3.70916496428191
H         2.83647539037240   -2.21154835551860   -3.33486699586917
H         3.97823578870191   -1.70868024852672   -2.00569047369508
H         2.78540380190127    0.11038107982574   -4.09671337603708
H         5.32152653491079    3.28714475847445   -1.67356394252935
H         3.81369590581680    3.41862539654555   -0.73965771036667
H         5.09946216196217    5.14074940023909   -3.08617944894296
H         2.27665984283987    3.97705321009401   -4.22990159681581
H         1.47171734173904    3.13137813033472   -1.58452286135483
H        -0.93097484043588    3.18464943766597   -2.76741468180208
H        -0.16778931649515    3.68731319008163   -4.25061065818235
H         0.54465316251458    5.52011929883597   -3.13129214379280
H         1.43298959583646    1.36773523057412   -4.05751685154426
H         0.00741070884996    1.06975347971454   -3.07548460565780
H         1.38418549951316   -1.39241914978273   -1.15364232859648
H         0.32923104022640   -0.90380398163614   -2.49685103894663
H        -0.48535384993735   -0.48262742606988    0.01186128022795
H        -0.31019802113285    0.93375638000683   -0.87354848192745
H         2.09943691873331    1.47731570517741   -0.40716342791053
