35
 energy: -49.715693282709 gnorm: 0.107158752404 xtb: 6.4.1 (79825abcba525fcdf90b791dcacef51065a7a4e7)
C         3.37974933110760   -1.50041096123681   -2.64587182974080
C         2.76887204356237   -0.17329805910660   -3.07141234352169
N         3.90379011907631    0.79286954088208   -3.13746638466913
C         3.77000268851457    1.65033334629283   -2.16706174497790
C         4.54879374774416    2.92716524385384   -2.14863016747286
C         3.84311557858955    3.89329498032193   -3.10776198737220
N         4.26342023572347    4.93162578853081   -3.75957326315341
N         2.55056095901702    3.51665653874845   -3.43250172901179
C         1.31070846965964    3.14818118963770   -2.72193947528100
C         0.16962955950660    4.05664231260239   -3.24850300433287
O        -1.08358845632335    3.47295323692611   -2.89185523546899
C         1.02862753954621    1.64063072238975   -2.90631269996973
C         1.83024042750092    0.59972902018160   -2.07331082545993
C         0.92109073799437   -0.21923368751388   -1.10530076288317
N         0.66038890441241    0.44892409715085    0.17926207947783
N         2.80716286471534    1.31788710668630   -1.23103505979627
H         3.99896783780700   -1.49172706259196   -1.74101233204061
H         4.06720382446485   -1.69195960440162   -3.47644844977445
H         2.66227887539731   -2.31593632622323   -2.53405864258853
H         2.43181613630181   -0.38437241340958   -4.09540225923566
H         5.56477741231542    2.63513973887341   -2.42641683463447
H         4.55999632813183    3.37282674940665   -1.15201874449353
H         5.28385562334579    5.01160949423152   -3.66731387361761
H         2.30880693902892    3.94411015868938   -4.32957698079814
H         1.50340611760714    3.50478779956082   -1.70102849254682
H         0.26213878335453    4.04030642614497   -4.33928381666362
H         0.26060798889147    5.08046123820904   -2.86452766099459
H        -1.77752765227606    3.91786794093102   -3.41469991622161
H         1.32596039146550    1.50760435776051   -3.95510599983492
H        -0.03660661878177    1.37557968328743   -2.86824689075515
H         1.37749903286528   -1.19468730125243   -0.93909283216045
H         0.03570994002145   -0.44812678817204   -1.71142739983063
H        -0.08485869951778    1.14087089499232    0.16469590069151
H         0.36460037252213   -0.18805346668450    0.92072267195345
H         2.40344933709539    1.85307022949065   -0.46497508241176
