35
 energy: -49.726651399533 gnorm: 0.111433379233 xtb: 6.4.1 (79825abcba525fcdf90b791dcacef51065a7a4e7)
C         3.69272229488569   -1.42790606051324   -2.64112856255664
C         2.92934052829843   -0.21339995574178   -3.14877769968902
N         3.93372485536755    0.88974223061846   -3.16187148171066
C         3.62603932681420    1.66857763476035   -2.16508993867960
C         4.34004139024052    2.94448852714474   -1.84980058505614
C         3.58992281347890    4.00967530397498   -2.65851650354676
N         4.07858684683626    5.17725741698747   -2.93709193360617
N         2.41748371025742    3.63473135659881   -3.29319234044288
C         1.25403267852206    2.93742123832491   -2.71177402869279
C         0.00217131853861    3.72647685208959   -3.17531066113481
O         0.18037602178852    5.10843015138058   -2.86403244936035
C         1.04464470291530    1.44734448368898   -3.06120136389540
C         1.81717544953457    0.39391996270951   -2.21654480187720
C         0.97604245905104   -0.65333456379507   -1.42278803981390
N        -0.29877414498458   -0.11996932453669   -0.91794537635928
N         2.68508827825430    1.15110485756495   -1.29298900512976
H         4.48449632579020   -1.74535680561748   -3.33003827364463
H         2.92565100039487   -2.20787700694168   -2.59225079732853
H         4.18849661628048   -1.24385760583528   -1.68578482673206
H         2.52601128013277   -0.40012340517397   -4.15335437054386
H         5.37451921690414    2.90568993821903   -2.20053899502241
H         4.33405967716570    3.20728106198335   -0.79014106419393
H         5.05860820212447    5.28223573277689   -2.64599872074270
H         2.20626639580475    4.25772804469588   -4.07624276215289
H         1.19431218133068    3.06751172946437   -1.62270570865324
H        -0.86503896398451    3.30964109283015   -2.65298712925188
H        -0.14173274691568    3.74435293181688   -4.26291876794013
H         1.12133808167322    5.32059922890385   -3.01383881161181
H         1.34396879623106    1.32775766041677   -4.11104625242845
H        -0.03494728665925    1.26713405565083   -2.96938522227687
H         1.56010311803406   -1.08964448974329   -0.61288054561041
H         0.75918817331842   -1.29749432315421   -2.28401573440253
H        -0.11609539147204    0.46264445604334   -0.10456588765384
H        -0.98151625077386   -0.86920354315307   -0.79342073394503
H         2.10880484345351    1.75293748469922   -0.70822548137720
