35
 energy: -49.723507354691 gnorm: 0.113173137682 xtb: 6.4.1 (79825abcba525fcdf90b791dcacef51065a7a4e7)
C         3.44971610458197   -1.35515147057885   -2.64049565334502
C         2.81753140530202   -0.01659206275291   -2.99275359562392
N         3.98318662094945    0.91125134578603   -3.07172533501850
C         3.85987089486301    1.67293736639641   -2.02317583597980
C         4.51163251292028    3.01839514214297   -1.97729458584327
C         3.89145338773993    3.72959618279074   -3.18596869662644
N         4.48323302682050    4.40216802121522   -4.12249887835900
N         2.53911144503037    3.60003514210254   -3.45503195760625
C         1.34181309370074    3.20995239286798   -2.68547424813703
C         0.13277371005809    3.99623752574119   -3.25522093776525
O        -1.06866756738741    3.61697669359340   -2.58354688288685
C         1.01541085908856    1.71036955822405   -2.86149820441834
C         1.82494324437547    0.69699338127552   -2.00261654580768
C         0.99904846238555   -0.40983369211932   -1.27658061004592
N        -0.08410378187990    0.15213742393823   -0.45470979068594
N         2.83802045352224    1.34850322097031   -1.14893837560121
H         4.07179408813582   -1.28447090502540   -1.74032849102828
H         4.16954606336061   -1.62596347209521   -3.42001330556562
H         2.77483062970565   -2.18099295417812   -2.40626691427980
H         2.43404238841342   -0.06445755058807   -4.02103346457762
H         5.60256634688341    3.07995824788607   -1.95008289485587
H         4.19369150080131    3.62212485721105   -1.12500476270841
H         5.49726414663424    4.52932170976463   -4.01400745787280
H         2.31819062648090    4.09080322225942   -4.32465617527318
H         1.52583821084816    3.55404422691313   -1.65868534879699
H        -0.07935696406062    3.74687512792413   -4.29994413770593
H         0.30754480607660    5.07931874161961   -3.27281270734536
H        -1.12835247169995    3.99080928027944   -1.68379460082341
H         1.13606774777041    1.55091683263513   -3.94135326364699
H        -0.06161682127051    1.61442517931112   -2.66854506775953
H         1.69527450479465   -1.03570906462295   -0.71891344204711
H         0.48785210357782   -0.93377635810904   -2.09379727554794
H        -0.26583134734837   -0.32537138064498    0.42469737709624
H        -0.05269045756710    1.17018237494928   -0.37992501593245
H         2.49619847541384    1.90456653573757   -0.36778231197284
