35
 energy: -49.719415811125 gnorm: 0.125973574956 xtb: 6.4.1 (79825abcba525fcdf90b791dcacef51065a7a4e7)
C         3.74229933131913   -1.46518917120800   -2.67187381495003
C         3.04212971226083   -0.18536141858028   -3.10464151885662
N         4.10539902358748    0.85065228742845   -2.95626362758511
C         3.75514394600142    1.55441779505052   -1.91854308053662
C         4.26207369441268    2.93025656960189   -1.62317066953086
C         3.67789866537871    3.86035429031886   -2.69320802909331
N         4.37608729146802    4.71118112215976   -3.37751143675478
N         2.32811853884290    3.82924653783355   -3.00164884225716
C         1.13467875688625    2.98514599845156   -2.79891082623347
C        -0.05337895884398    3.78426342965449   -3.39436193536757
O         0.00470301111465    5.10459439005638   -2.85417807556714
C         1.05469436255304    1.48836271438609   -3.17242630306608
C         1.86585468086971    0.48493306632116   -2.30346163748316
C         0.87885079906258   -0.54305787184284   -1.66835962745389
N        -0.10609146798600    0.12158917158522   -0.80081422419514
N         2.59186785268774    1.21985373881556   -1.24877995297408
H         4.76149378694700   -1.53486132282563   -3.07020299672618
H         3.13228003085457   -2.23316448003262   -3.15893897035302
H         3.83627718871327   -1.60689279504652   -1.59324695012785
H         2.88138869082195   -0.18914035348126   -4.19131648227981
H         5.34684855043343    2.93840848606020   -1.75682771479082
H         4.03416675818230    3.15791523863236   -0.58000052046615
H         5.35620023754439    4.70105241813072   -3.06852342591412
H         2.16081027486003    4.50334841292132   -3.75231534709836
H         0.90078582151376    3.06009485719965   -1.72828640710057
H        -0.99683358805954    3.27905867153599   -3.16351759599022
H         0.09714574162553    3.92565781660544   -4.47198398013613
H        -0.10704906860157    4.99146510126524   -1.89106826938958
H         1.41060225000387    1.34879939753685   -4.20195137089772
H         0.01581944445288    1.13261757117135   -3.14774484085184
H         1.44192676554972   -1.16811338057318   -0.97575986005162
H         0.28565625246709   -1.08945897781474   -2.41216523160845
H         0.27084570760373    0.22127503938565    0.13853535629577
H        -0.97138671688828   -0.41256402770122   -0.70626487660514
H         1.94935438554346    1.86025520287530   -0.78691859821059
