35
 energy: -49.719250785461 gnorm: 0.114117230499 xtb: 6.4.1 (79825abcba525fcdf90b791dcacef51065a7a4e7)
C         3.74506378959859   -1.37338489821779   -2.61391502562031
C         3.04861733941593   -0.10076894311035   -3.07314854100399
N         3.97404534402523    1.05044625500335   -2.86298530277332
C         3.60953452883621    1.71726403547158   -1.80595439716468
C         4.11207335034442    3.12148507860029   -1.69293708354147
C         3.73259739783435    3.86350209741750   -2.98007768246326
N         4.47081545896858    4.77130998518493   -3.53736012832928
N         2.46436023481049    3.60430067674392   -3.47241796525575
C         1.35466683015889    3.01041634193794   -2.70184096723144
C         0.02872884344945    3.78560893122801   -2.91537487100784
O         0.04311613366150    5.16784039449908   -2.55805829288271
C         1.06166669498898    1.53077034286043   -3.03511288182154
C         1.80154368867608    0.40441071772878   -2.25803649271424
C         0.93711760589324   -0.73153204872122   -1.62819671822991
N        -0.29797241390142   -0.12072209323082   -1.11247797667509
N         2.56042013077871    1.06845653587587   -1.17974773288217
H         4.76994573674579   -1.30556013102182   -2.99770465648728
H         3.37096017582673   -2.34143639753962   -2.96329284214957
H         3.75823137279811   -1.21999345108325   -1.53287601144946
H         2.80418065701269   -0.15719604786682   -4.14262556837686
H         5.17630248322543    3.11535988928838   -1.44384681541100
H         3.54507477023776    3.54376841051177   -0.86097350338918
H         5.46476721429846    4.76662325045573   -3.27614086731083
H         2.20059217520974    3.91979201713415   -4.40879246777576
H         1.60317252951760    3.09602738341983   -1.63531597832988
H        -0.70689667441781    3.24846586157439   -2.30795408111470
H        -0.27998816729973    3.65987582298827   -3.96074768409652
H         0.53545656696567    5.72938071069969   -3.18666041622918
H         1.05830177289574    1.33846446963289   -4.11635167445279
H         0.04811680726126    1.38325589963739   -2.63840014054877
H         1.51713994144189   -1.01629595039563   -0.75074188726840
H         0.79046724397618   -1.60491907153489   -2.27578414919198
H        -0.56324881604511   -0.48626324706204   -0.20121257428649
H        -1.12902640734375   -0.26953472930513   -1.68710754794697
H         1.90805058722246    1.48729072732258   -0.52001643748854
