35
 energy: -49.713992220888 gnorm: 0.119500821351 xtb: 6.4.1 (79825abcba525fcdf90b791dcacef51065a7a4e7)
C         3.73327883537816   -1.45426402334547   -2.42886216223472
C         3.02919862603148   -0.26233661147181   -3.06057772527893
N         4.01945224145115    0.83996807770315   -3.23437116976786
C         3.76155740067467    1.58317725155819   -2.19708683251897
C         4.35102153802343    2.92488346731266   -1.89790227837440
C         3.54079962950140    3.96793001618788   -2.67695075380834
N         4.10605597001346    5.09279175616484   -2.98487306171832
N         2.30433524994196    3.75041416264428   -3.26163230111874
C         1.16262565626283    2.94088979820474   -2.79357625238039
C        -0.10322311418404    3.69678225371237   -3.27408153290761
O         0.11793815133633    4.96881110607377   -2.66459300591454
C         1.15702357906962    1.44308272377805   -3.17148377978099
C         1.88357935162116    0.43359144610454   -2.23714136294047
C         0.92078149144232   -0.55402274412407   -1.50780259838753
N        -0.31018257696010    0.02764874259870   -0.95022955067184
N         2.74080194066212    1.22681157551325   -1.33407535987284
H         4.61346158517942   -1.66426902521978   -3.04809871676221
H         3.04905827412338   -2.29860621966784   -2.56328895785411
H         3.89452236769874   -1.35989777599286   -1.35301681976489
H         2.55311515664183   -0.53697555131674   -4.01169938362296
H         5.42737911507547    3.04014651864891   -2.04901787173346
H         4.24365648353624    3.22104280652163   -0.85256195269273
H         5.06705370164484    5.08886552730668   -2.62064028673225
H         2.08999089172269    4.30745145367735   -4.09209695015439
H         1.12985976801428    3.07280376018252   -1.70358313795854
H        -0.99929769124732    3.25030005345717   -2.83098832056016
H        -0.08914034997772    3.73236631926877   -4.37064652585684
H         1.05172748667355    5.18732415601864   -2.84668305832444
H         1.34932054782914    1.28880093275623   -4.24166563340447
H         0.10176591401734    1.14707012678003   -3.09914650616425
H         1.42225817126517   -1.11543959753980   -0.71990945358957
H         0.53440854754417   -1.28738873640026   -2.22653132012486
H        -0.27200832450693    0.78069869186630   -0.26769381375729
H        -0.88245290992645   -0.67521167250426   -0.47960338779992
H         2.36227428585657    2.05525380804137   -0.87948348519291
