35
 energy: -49.720320547946 gnorm: 0.104929223853 xtb: 6.4.1 (79825abcba525fcdf90b791dcacef51065a7a4e7)
C         3.65937548262887   -1.33223225295545   -2.95061577760469
C         3.02573474222454    0.02748005322602   -3.20589263558336
N         3.95440295113365    1.17021015191477   -2.96584001202086
C         3.56301841998764    1.75553300605199   -1.87083146642737
C         3.98413244222556    3.13156678777392   -1.46297249407203
C         3.61146531040741    3.94820293986119   -2.70617271511492
N         4.26562838235408    4.90050108075813   -3.29340667576303
N         2.37689430791533    3.68750565036685   -3.27703276727373
C         1.27323836827509    2.92698126881142   -2.65941380547420
C         0.07233083364578    3.81379710668363   -3.07894997041661
O         0.34404074141912    5.21190576129169   -2.97939158980458
C         0.89953468276809    1.46015528244207   -2.96769707542732
C         1.80342770669100    0.39349231214155   -2.28567128875351
C         0.90275702870932   -0.78663257012347   -1.80567741229391
N         0.14336468216432   -0.28692047359570   -0.64890904515795
N         2.51221558779471    1.13221929042798   -1.22197061929365
H         4.08230109574200   -1.42986040026599   -1.94369952313220
H         4.45588298532464   -1.60856058240132   -3.64944374184669
H         2.82115825527083   -2.02323155888397   -3.06133842295580
H         2.64312404168218    0.09741786685163   -4.23323491904815
H         5.06213909405244    3.15380611034894   -1.28387976862566
H         3.32934211433516    3.50451290224170   -0.67295045409313
H         5.24104975614236    5.07026615627812   -3.01785174662559
H         2.43566492406724    3.80818825696324   -4.29088054079451
H         1.46407366645006    2.97283316688344   -1.57865510455701
H        -0.89741641239557    3.55846486527293   -2.63960578532724
H        -0.02785972035334    3.58159528578584   -4.14664070289236
H         1.26639099556636    5.30905932636114   -2.67492738165376
H         0.78271375857702    1.22057769646247   -4.03307289393145
H        -0.10734336944087    1.33126998709311   -2.54816157078208
H         1.55872100778987   -1.60525567094964   -1.51070143024542
H         0.22847555205753   -1.00739904009109   -2.64250915232067
H         0.76567078742042   -0.56780739435702    0.10490405553142
H        -0.75439922464883   -0.75309216681753   -0.50855590676583
H         2.04803916455248    1.57318733676853   -0.43055359902198
