35
 energy: -49.719928315132 gnorm: 0.113180706168 xtb: 6.4.1 (79825abcba525fcdf90b791dcacef51065a7a4e7)
C         3.64841430397005   -1.30850277082638   -3.15162310125928
C         3.06383416134020    0.09079438517902   -3.27699435717170
N         4.07652718011375    1.13694595986390   -2.95156889671500
C         3.71458362552581    1.63717055747772   -1.80544471222593
C         4.14257431640246    3.03523972493356   -1.49019635673314
C         3.70587208584146    3.74953866948085   -2.77487156134786
N         4.55594076908250    4.40278347976883   -3.50308804884043
N         2.41336845806196    3.56920593674064   -3.23847086286043
C         1.20542966739986    3.02233825236191   -2.59060778228323
C        -0.03620287083202    3.82494296245273   -3.05837496288092
O        -0.34876028989558    5.05444760078657   -2.40333897316042
C         0.90590519353506    1.55344009360573   -2.96329372905606
C         1.85981292074593    0.49048858258774   -2.34673407534901
C         0.96122550402767   -0.61753226374455   -1.71496907307795
N         0.22583580477348   -0.01743474571639   -0.59087524339472
N         2.63623950838493    1.01260927824263   -1.20475829733671
H         3.74424913714256   -1.69288350122288   -2.12920204657171
H         4.63151469125858   -1.12605086097479   -3.59812843424527
H         3.11250997944042   -2.03542607712939   -3.76541192703644
H         2.89269823146905    0.32032089681746   -4.33753407226689
H         5.17944797802419    3.26469006138759   -1.23152148507138
H         3.46422759030754    3.47246822273851   -0.75490663564653
H         5.53109040658540    4.56233967063640   -3.22055917918941
H         2.26133446050363    4.09397444367272   -4.10299921434050
H         1.36050634746180    3.17118967447453   -1.51341032941547
H        -0.97616194009715    3.26773581993957   -2.99036954501199
H         0.08766823090345    4.04233180004767   -4.12669952464983
H         0.41440212731108    5.64752034962572   -2.54014211389191
H         0.79321598714204    1.39521251936806   -4.04418936497133
H        -0.13973594182606    1.41613074441276   -2.65636437719335
H         1.61303498388908   -1.40925016086236   -1.34649853671865
H         0.37120769546721   -1.01552620568221   -2.54993045967116
H         0.04909783639064   -0.81391353303548    0.01639880739239
H        -0.69639022938930    0.27110115629808   -0.92139190262289
H         2.04958128474194    1.31347612126954   -0.42915224282040
