35
 energy: -49.718373091367 gnorm: 0.112991454914 xtb: 6.4.1 (79825abcba525fcdf90b791dcacef51065a7a4e7)
C         3.70508939983145   -1.27658271377811   -2.84222421920108
C         3.02013322915069    0.02569442517843   -3.23003055199554
N         4.03296107393631    1.09368555462386   -2.98619307449340
C         3.60171912073051    1.76785363880204   -1.95937458522709
C         4.11744745907171    3.12817234739979   -1.61193788021257
C         3.53726620432470    3.90392927752644   -2.80059810005057
N         4.21139185497983    4.88329296415620   -3.31639476163952
N         2.36114733936047    3.43015131086740   -3.35763374602317
C         1.13920785349562    2.84386465985177   -2.77364843364779
C         0.04707360849234    3.84613809615879   -3.22897535296884
O         0.39863293187089    5.11596043060851   -2.67906331462739
C         0.79718680696116    1.35704295067899   -3.01583505407501
C         1.81842053135833    0.42860537085197   -2.29817423911130
C         1.05382785194716   -0.69717443923141   -1.53507895163295
N        -0.07343108192296   -0.25678062168488   -0.69851302420885
N         2.56576523782693    1.17077197133966   -1.26365909386917
H         4.32805250969498   -1.13694123562576   -1.95076759922205
H         4.37850926955516   -1.60546339075376   -3.64065096103532
H         2.85734986127898   -1.94586503654415   -2.68176699871427
H         2.68997343993207    0.07159779446364   -4.27674054861319
H         5.19833832885665    3.18464120487478   -1.76410014040362
H         3.83031993620890    3.32088231904463   -0.57637298349769
H         5.02812754034528    5.17027381067102   -2.76251536996100
H         2.08412384245580    4.01092913572973   -4.15253041064463
H         1.09221654588856    3.11570490242513   -1.71042005015781
H        -0.94323504984933    3.63098348271361   -2.81469905424000
H         0.00484749355007    3.84696650451445   -4.32539480006964
H         1.37144290897818    5.18282619160770   -2.72419623954245
H         0.82704922686960    1.24054828549771   -4.10744278713118
H        -0.23734055905896    1.21430564024742   -2.67553509553042
H         1.88316634542443   -1.21007316533098   -1.04868823849642
H         0.61312489492248   -1.45339792493183   -2.19658303117606
H         0.24418768390015    0.29084910917716    0.09748731076782
H        -0.69430785306278   -1.02213899155806   -0.43068157729870
H         2.03784604151676    1.68439456491853   -0.56098801685348
