35
 energy: -49.719186053769 gnorm: 0.122255766650 xtb: 6.4.1 (79825abcba525fcdf90b791dcacef51065a7a4e7)
C         3.44629517840045   -1.48331457426788   -2.50021938619605
C         2.84094838957674   -0.18276495115784   -3.00777271650594
N         4.03092326952051    0.70830169479223   -3.13363780353868
C         3.87451359076849    1.62814315495120   -2.22575229417976
C         4.54923734926049    2.95974762025563   -2.13230551904278
C         3.81258656632240    3.91014292660296   -3.08383930874009
N         4.40006807051576    4.88962757005001   -3.69630980617809
N         2.54748328187001    3.58246882783238   -3.54226399229739
C         1.35241249480710    3.08011382369502   -2.83703195681227
C         0.13546322727549    4.03332929998825   -2.95969631470039
O        -0.90310989192546    3.46669597787917   -2.16048513499207
C         1.06863528023329    1.58632859962498   -3.10969976073392
C         1.83666370956951    0.65239428305573   -2.13100127697623
C         0.88168776019404   -0.18608181668491   -1.22586298919753
N        -0.26291580007544    0.63364665617684   -0.79874485962493
N         2.85180389370486    1.36661243410237   -1.33166419190800
H         3.92807061254958   -1.30715162070562   -1.53112871649964
H         4.22353453788163   -1.87227746976276   -3.16636420791522
H         2.69673955121130   -2.26747156970159   -2.37527206825384
H         2.39592229250469   -0.32256716430586   -4.00231861020866
H         5.56780467198067    2.89135642377722   -2.52283130910109
H         4.59015873852336    3.42259629965565   -1.14434270511774
H         5.35839241448417    5.08494044677555   -3.38061233516637
H         2.24486961546579    4.12450452579414   -4.35499264660863
H         1.71598552850082    3.17453332163120   -1.80482097869048
H        -0.11758239076014    4.04947954911945   -4.02474780442955
H         0.42924917057876    5.03709385692786   -2.62793456554999
H        -1.28669862272159    2.66174491158298   -2.55770135566287
H         1.44217356082299    1.35258943936274   -4.11563483380994
H         0.01044676736758    1.34178570154174   -2.94580737570601
H         1.45328029235956   -0.60983742446131   -0.40054091921930
H         0.46464671584495   -1.00144304259011   -1.82996856509038
H         0.20280103752814    1.26524380933236   -0.15176000247680
H        -0.70942304191389    0.12380225988760   -0.03475201799774
H         2.66026879871396    2.01581312273374   -0.57133120955048
