35
 energy: -49.718628304901 gnorm: 0.124232745543 xtb: 6.4.1 (79825abcba525fcdf90b791dcacef51065a7a4e7)
C         3.58505251625493   -1.50055989009318   -2.92163203079834
C         3.06909116136984   -0.08982453817773   -3.16472470781110
N         4.00733379202177    1.06450736368324   -3.05026683224125
C         3.64869056361884    1.70842093775168   -1.97715045544926
C         4.19624643723804    3.04855943486689   -1.60116334497784
C         3.55108658622476    3.99387425978571   -2.62168812823122
N         4.17853430829289    4.92340351180714   -3.27124915395985
N         2.35559048478288    3.56232860109402   -3.17174925455645
C         1.13790044182187    2.96354562439775   -2.59157958284253
C        -0.00453669487421    3.77443791075440   -3.25635240683417
O         0.10631004589727    5.19444388427935   -3.15765090809521
C         0.90435601299792    1.46418186914753   -2.88077986170918
C         1.86108707156628    0.39426162890610   -2.28087321569826
C         1.04289014050352   -0.72520860227885   -1.56558536635903
N         0.19012483646179   -0.12507358690684   -0.52773602007294
N         2.64992434498303    1.09110021532037   -1.24563958417126
H         4.59894699342674   -1.59008303677989   -3.32940803429772
H         2.87152400845167   -2.13340967277997   -3.45970293561716
H         3.70895357460403   -1.63786884658105   -1.84546176611823
H         2.73297721619361    0.06888987154658   -4.19843238580198
H         5.25847973193640    2.99232028085699   -1.85248929337367
H         3.98976612082553    3.31448705849682   -0.56259588553015
H         5.11743614382886    5.04274545709761   -2.87072648336089
H         2.25976340247807    4.00835542433552   -4.08705402974203
H         1.17750169741370    3.30368118465718   -1.54788451231019
H        -1.01798296168219    3.61887822286101   -2.87248337483308
H         0.16017941526592    3.49173633164705   -4.30366695096798
H         1.01731608412153    5.51867508448507   -3.02419909842571
H         0.89056586623607    1.25388042710240   -3.95858008729967
H        -0.12430438636368    1.18486185696127   -2.61570823832950
H         1.66663835572378   -1.47332292973609   -1.07700940983613
H         0.42885250928116   -1.19729752740283   -2.34261209506655
H        -0.09055628001875   -0.86362160304618    0.11270248270422
H        -0.66623630057557    0.33002834563287   -0.84792801829513
H         2.22464210478838    1.63763446000323   -0.49952376695533
