35
 energy: -49.724035103840 gnorm: 0.115051226823 xtb: 6.4.1 (79825abcba525fcdf90b791dcacef51065a7a4e7)
C         3.49630363230826   -1.29626766692170   -2.89516402083181
C         2.94519691010518    0.09384189730155   -3.17687526343983
N         4.09474261414872    1.00843256911250   -2.91620194591636
C         3.71085287109674    1.71266345122490   -1.89076742391927
C         4.30750976334199    3.07500705220782   -1.73209980227218
C         3.93627119834431    3.71947406205090   -3.07305706706467
N         4.67097247287629    4.35076421572903   -3.93406320929333
N         2.62488321049584    3.55257782484401   -3.48587303059653
C         1.39558456407275    3.15293874973392   -2.77381939409606
C         0.23537952387561    4.14386437017686   -3.05062705723453
O        -0.71840437183472    4.01576266693441   -1.99595545582263
C         0.94874539877449    1.68496602042779   -2.95175850316440
C         1.77538880341210    0.57493744287368   -2.24151283269962
C         0.90042518507545   -0.52895312711207   -1.57057257710788
N        -0.06583992605736    0.08578479979389   -0.64702994588856
N         2.58408231084866    1.27060602710076   -1.22091644807448
H         3.26785960251891   -1.65460322815811   -1.88437886505923
H         4.57426812916985   -1.35619052298392   -3.07831388910851
H         3.07130270701453   -1.99661021215568   -3.61713507280284
H         2.49692953198988    0.11768096616949   -4.17947312758210
H         5.39410773481127    3.06683994007956   -1.61417913585695
H         3.79975604657588    3.56366942035388   -0.89821176641540
H         5.64929194301373    4.33198655040911   -3.61984038666703
H         2.44156597729264    3.99208373745246   -4.39093376589841
H         1.57171783778600    3.29125638938989   -1.69845657873778
H        -0.18070793526273    3.91181178098146   -4.03635034992775
H         0.71609651935517    5.12552882534349   -2.95489098222994
H        -1.60139398957222    4.37747392157631   -2.20177470104896
H         0.87517055335566    1.42271234977483   -4.01565697416171
H        -0.03372374030871    1.51709702809744   -2.49024007564311
H         1.56307297857124   -1.24377339882881   -1.08336293277273
H         0.28292331142066   -0.94372095904399   -2.37700905448536
H         0.49170984045117    0.42490876889356    0.13305321103638
H        -0.66701408586039   -0.63613883455898   -0.24651654813922
H         2.06391861067210    1.84758878060031   -0.56306075784065
