35
 energy: -49.723118483459 gnorm: 0.104452481958 xtb: 6.4.1 (79825abcba525fcdf90b791dcacef51065a7a4e7)
C         3.78508073042455   -1.36715164650746   -2.63717029714445
C         3.02002172208625   -0.14845820965430   -3.13210004535256
N         3.98635993613639    0.98325866191157   -3.02584853762847
C         3.68699716063824    1.66490325559638   -1.95787335364951
C         4.17847438850341    3.04315885837616   -1.64800796340654
C         3.63684418149479    3.83976332866343   -2.84106295720152
N         4.23146025616550    4.71653622421426   -3.58761892418763
N         2.39254326665822    3.48055202265864   -3.33166697996344
C         1.19026425157124    2.96257856383635   -2.65039198000943
C        -0.11864783854414    3.69720652090465   -3.03988230159273
O        -0.06573580979362    5.11884724098214   -2.91911838370701
C         1.01340293606726    1.48039108348057   -3.04802482886823
C         1.84845478216805    0.43255861241156   -2.25765326724257
C         0.91970804776299   -0.64642029522972   -1.61927205055443
N         0.12831942868293    0.09527254801400   -0.62524098491962
N         2.65420018972312    1.11074144497310   -1.22305222199600
H         4.63570493860405   -1.21432482526380   -3.31197405197096
H         3.34606895548484   -2.36629751095586   -2.72727177232256
H         4.10668397892154   -1.24269485800752   -1.60110585793570
H         2.63325575066837   -0.31926582429210   -4.14597935654108
H         5.25373341025705    3.22671130382019   -1.57877165496195
H         3.71230322396129    3.30729188776875   -0.69674975211012
H         5.16339294426466    5.01016605782690   -3.26905881047090
H         2.17901527019969    4.06111614560764   -4.14607271019213
H         1.21309535098046    3.19005958401447   -1.57601262196990
H        -1.03311197234278    3.37832124736130   -2.52929919448244
H        -0.32369438141778    3.46444527368096   -4.09235436379507
H         0.81944193627396    5.48240672535087   -3.11186722594344
H         1.33207479290406    1.55323605008904   -4.09645798029772
H        -0.02156413970868    1.14115334354164   -2.90594817042947
H         1.60345313615801   -1.29919052838089   -1.07721389777945
H         0.26786421149227   -1.19184989323875   -2.31302046805260
H         0.02222235225220   -0.43054662024727    0.23885053276355
H        -0.76211310842777    0.46306357622659   -0.96414324323830
H         2.19830056235843    1.63370253319113   -0.47812221925161
