35
 energy: -49.720063280136 gnorm: 0.110130505476 xtb: 6.4.1 (79825abcba525fcdf90b791dcacef51065a7a4e7)
C         3.56660804338295   -1.38753568362036   -2.71219717758059
C         3.00151799953348   -0.05114000149181   -3.17067755465084
N         3.96962535788978    1.07521263070667   -3.02932732336517
C         3.56543233916237    1.73556987109423   -1.98272102711053
C         4.01774342135699    3.11834683865664   -1.63559355538042
C         3.80233658001290    3.84415192541301   -2.96905862158959
N         4.62697418259794    4.58569953520892   -3.63967384895364
N         2.56059816191706    3.66071347236337   -3.55424739617144
C         1.41728005504290    3.05514054926622   -2.84430927865247
C         0.20570974658939    4.00955281012191   -3.00501538291722
O        -0.57318894446082    3.99392891977654   -1.80855448479083
C         1.12560673320067    1.59487367831517   -3.25518501311644
C         1.77152577855949    0.49954156624597   -2.35908913907258
C         0.82434192368352   -0.56522012443565   -1.72393418028494
N         0.13578695038456    0.10691427613387   -0.61099691079445
N         2.56467146897753    1.10107472006887   -1.26884388222503
H         4.09576158379204   -1.22007043480590   -1.76656003698272
H         4.38505447798502   -1.79631038114882   -3.31402003827854
H         2.77754502808652   -2.13301693910644   -2.59393933277967
H         2.77753558358753   -0.17756624214114   -4.23864885513073
H         5.06692102431013    3.29913880316301   -1.38819153636875
H         3.46433156199998    3.64158449123432   -0.85333293655032
H         5.52140569617927    4.86159692933613   -3.21532675453312
H         2.38979694760993    4.05149879401052   -4.48377381852769
H         1.59933665165730    3.18472689478425   -1.76884534888142
H        -0.39793479867819    3.73293908756857   -3.87548979545180
H         0.63563105942515    5.00992164083783   -3.14047459089843
H        -0.15409449582262    4.68934395031417   -1.26668269154087
H         1.45478441562235    1.54795840325864   -4.30185172888452
H         0.02925325800762    1.55859037026133   -3.31101907021766
H         1.35127444129201   -1.45627953485053   -1.38364224572022
H         0.18939176311296   -0.98913659320918   -2.51185157518565
H        -0.46776429314360   -0.55285484263930   -0.12640724564992
H        -0.40052104099409    0.90192257174950   -0.96218152436604
H         2.11914896333573    1.61629434870828   -0.51233088735075
