35
 energy: -49.725901852141 gnorm: 0.109214050799 xtb: 6.4.1 (79825abcba525fcdf90b791dcacef51065a7a4e7)
C         3.64148686132364   -1.43772422256745   -2.56605163940296
C         3.06671474087188   -0.12342176018388   -3.07372328474265
N         4.03601829714719    1.01041343326896   -3.04633028344641
C         3.74554622317566    1.70488850548794   -1.98418209682234
C         4.25625887605646    3.07430483007713   -1.66633550715919
C         3.59718723057084    3.95735903217134   -2.73271350296608
N         4.16447701529691    4.91507842216469   -3.39649108175836
N         2.39009806115766    3.50739274269667   -3.24111876267285
C         1.18732011761383    2.86051692578534   -2.68184793752995
C        -0.06698529119415    3.70912568799744   -3.01533394866191
O         0.12759599418400    5.08850328841017   -2.70244177680564
C         1.02741286652194    1.39094665679403   -3.13025003041500
C         1.85046887713412    0.41943642235726   -2.23655076608202
C         0.90954559342895   -0.63663303644181   -1.57800901891734
N        -0.31587864274763    0.04421581876577   -1.13159860753594
N         2.68902876652913    1.16221076884499   -1.27495806206958
H         4.62617562470814   -1.55562299688261   -3.03377549334081
H         3.02185133042836   -2.30013111018409   -2.83334969480297
H         3.87709057120661   -1.43255289562621   -1.49983786358721
H         2.91344559915097   -0.20354562213251   -4.15852887095329
H         5.32095109212618    3.10466319138740   -1.91164347313773
H         4.10662474428206    3.29424666417402   -0.60746384016586
H         5.12809385609814    5.14336670670559   -3.12167367820147
H         2.26775578132569    3.85413769306016   -4.19542788436075
H         1.19052902181088    2.97071723309006   -1.58895934253743
H        -1.02647764721671    3.55620836556007   -2.51073679125874
H        -0.21974295416144    3.77290785800871   -4.10000728917026
H         0.95040163713891    5.44551872995762   -3.08766652606910
H         1.35649767064659    1.29854306595147   -4.17391424000504
H        -0.02438434800002    1.09349905839585   -3.02221103361241
H         1.37085664291136   -1.27784093003304   -0.82735070359688
H         0.76363379359564   -1.35607140620704   -2.39336102408525
H        -0.03551613404418    0.58907556731298   -0.31985895806170
H        -0.98225689189960   -0.61420711451383   -0.72488696977895
H         2.30679396254021    1.81951274576791   -0.59812414619007
