35
 energy: -49.717795565683 gnorm: 0.123825623597 xtb: 6.4.1 (79825abcba525fcdf90b791dcacef51065a7a4e7)
C         3.39115446246399   -1.47565961768184   -2.45917715226783
C         2.95090914009994   -0.16947741118468   -3.10381391932953
N         4.10363540826608    0.77738241810441   -3.08013613879245
C         3.78353962619199    1.58148541940276   -2.10762110283797
C         4.42218314889527    2.92929169568294   -1.99489288181574
C         3.84901234144911    3.81587287007842   -3.10699505312081
N         4.58999266482775    4.29291203595518   -4.05727217354250
N         2.48958000202810    4.07113909006203   -3.17622450003412
C         1.39752179739040    3.25213356802013   -2.61538066626973
C         0.06908228391370    4.05204613888859   -2.61987105411213
O        -1.00338392469596    3.14416222880334   -2.36687106340795
C         1.30359708393779    1.82060673596773   -3.18825117309965
C         1.84351893188493    0.63899855005204   -2.33254198425311
C         0.64915498664232   -0.13021586499952   -1.68748342468056
N         0.05753914503485    0.79748686260274   -0.71082568658762
N         2.71155408250573    1.24203030141783   -1.30180211888761
H         3.77260829905957   -1.25486716674502   -1.45517448787886
H         4.27616281865000   -1.72453916974874   -3.05412359240272
H         2.63916885725976   -2.26513642240156   -2.39924642040269
H         2.74485014584015   -0.20472954778918   -4.18224398634815
H         5.51278186945550    2.88017227073573   -2.04826754579921
H         4.12334491916801    3.26544196973949   -1.00006992523866
H         5.59552894003918    4.08674075265934   -4.00640209783659
H         2.21087675634715    4.81444139374839   -3.82099715438457
H         1.54982721372655    3.11395748393918   -1.53636707735489
H        -0.11411788322545    4.33142067109650   -3.66247124887787
H         0.16099812334703    4.90905394341538   -1.94089503898399
H        -0.57559991260056    2.37629223999589   -1.94231979344655
H         1.88485277288673    1.70935841380790   -4.11336514235060
H         0.27700830677867    1.57801817898189   -3.49434127777983
H         0.99245116256805   -1.05251400968808   -1.21955476042137
H        -0.13926103192570   -0.24269594692498   -2.44208870674417
H         0.55451300331719    0.70018568190745    0.17118678847254
H        -0.91056481799442    0.59079236755709   -0.45973369158677
H         2.18504347068715    1.89041936331251   -0.71988142052488
