35
 energy: -49.719973572490 gnorm: 0.121181962161 xtb: 6.4.1 (79825abcba525fcdf90b791dcacef51065a7a4e7)
C         3.19066107588871   -1.55318976827302   -2.67564440411522
C         2.87930690768513   -0.11343299364997   -3.05727699049266
N         4.05584367389003    0.79944493329230   -3.14836545346313
C         3.89353737894007    1.64297031476015   -2.17012724003051
C         4.49634830230157    3.00905960304208   -2.08309865680057
C         3.77155452694733    3.87568624931079   -3.11989876040797
N         4.29078812732611    4.83966746999627   -3.81328285960716
N         2.53934736701918    3.46082590900804   -3.59693786374889
C         1.38998606389595    3.23022615971123   -2.70044504462764
C         0.12861080531289    3.82472651176357   -3.37877656399394
O        -1.05699244351344    3.51748178027526   -2.64502485141225
C         1.02928731038854    1.72874165585242   -2.74182441646881
C         1.92530238369097    0.65087036550742   -2.06706361888730
C         1.03779635045795   -0.29670434851312   -1.20177076235649
N         0.47081945802319    0.41405269889319   -0.04511023157220
N         2.91342340464738    1.36481326553770   -1.23432157792268
H         3.44255153474978   -1.53928341955734   -1.60857576102060
H         3.97765126580064   -1.88785642305674   -3.35959377983749
H         2.30029602435181   -2.18320813727076   -2.72736083493738
H         2.44900623148655   -0.12469560858982   -4.06793464164774
H         5.57205642347102    3.05588958744363   -2.27105111770789
H         4.29972161249205    3.48300845035971   -1.11941590753623
H         5.23999222612015    4.98297684143982   -3.44630659657858
H         2.34656937279444    3.96016951599030   -4.46837243988905
H         1.56764288177750    3.49254441885117   -1.64869075819183
H         0.03268610370373    3.43843774544281   -4.39868197231927
H         0.20097955761302    4.91564955078457   -3.47134557738037
H        -1.49515410208673    4.28952421680545   -2.23902965727613
H         1.18289349000840    1.51918392009349   -3.80885811951254
H        -0.02802948059430    1.52732746956629   -2.52287603230122
H         1.62248582920504   -1.09314976988337   -0.74214455065946
H         0.30842564730674   -0.74932207238602   -1.88502493842017
H        -0.28193589391150    1.04964159066710   -0.29766255263068
H         0.24233505652091   -0.23326272885653    0.71104629791694
H         2.61309609221053    2.11226698500575   -0.61193109141933
