35
 energy: -49.713889335038 gnorm: 0.116664089988 xtb: 6.4.1 (79825abcba525fcdf90b791dcacef51065a7a4e7)
C         3.32348101548296   -1.57438340115483   -2.59361724258346
C         3.04416524305190   -0.17807146193025   -3.13006860333964
N         4.16807969928655    0.79633316461946   -3.01503006187222
C         3.85737458335946    1.64617530065012   -2.07904981201901
C         4.36336261548396    3.04500636224036   -1.92283646218436
C         3.75503679077738    3.84371223276758   -3.08185792668645
N         4.21142919694776    4.94274242123790   -3.59516426665854
N         2.54338667798142    3.44007978045169   -3.61757677464223
C         1.40141953903944    3.11293032941227   -2.74191058105921
C         0.15648619975301    3.99034635171560   -3.03331052027081
O        -0.48901439168008    4.06477619617970   -1.76199814815698
C         1.15355395089340    1.62221940104271   -3.06224648461980
C         1.92056611624636    0.51924697500948   -2.27796606267968
C         0.91902253646535   -0.43270739198058   -1.55340424363645
N        -0.13330341495812    0.38533420786078   -0.93057202021413
N         2.81769725654758    1.16835837863015   -1.30156092002250
H         3.58745416534360   -1.44459749792158   -1.53732586847916
H         3.99922824848201   -2.21475437292914   -3.17018706401951
H         2.43980678205010   -2.19661870226597   -2.74947209551146
H         2.73125949976844   -0.22462472951184   -4.18203684259441
H         5.45281169290449    3.13305883485639   -1.91901960336207
H         4.07354286212263    3.41867968409672   -0.93879036380485
H         5.12097207476489    5.20210483269871   -3.19309405947115
H         2.33131326626811    4.26032645255169   -4.19039950597972
H         1.63684881779350    3.25391707276201   -1.67830554665145
H        -0.39618276424539    3.43178094879503   -3.79566824616331
H         0.51112174308680    4.95181051589535   -3.42540696130494
H        -1.41541721607909    4.34513880168985   -1.88865468151647
H         1.36845463314063    1.42981387162086   -4.12190114857767
H         0.07818241386132    1.43685276019691   -2.93718601864532
H         1.47429591663663   -1.09440359095985   -0.88912045584988
H         0.49777752833615   -1.09458987994306   -2.32031030441261
H         0.14496249518333    1.26726665507282   -0.50729932989414
H        -0.74942595192526   -0.14750452688791   -0.31455986146402
H         2.29917042597544    1.83870325500424   -0.73762728852123
