35
 energy: -49.718849975601 gnorm: 0.115339487314 xtb: 6.4.1 (79825abcba525fcdf90b791dcacef51065a7a4e7)
C         3.58403867068337   -1.34527402755642   -2.61713845299875
C         3.02650722827773   -0.04278415715763   -3.17226300364786
N         4.03920009656496    1.03234541729947   -2.96147506806348
C         3.66252162519545    1.67710571173409   -1.89506712542246
C         4.25650833515884    3.02410352570394   -1.63062131380902
C         3.65613122539696    3.85679222744264   -2.76969945623355
N         4.37204661965475    4.54769003506689   -3.60022348624766
N         2.33390755420270    3.71767309934659   -3.15748837949693
C         1.13857370821346    3.02971916505237   -2.63231856343608
C        -0.04295185087554    3.81533376839382   -3.25796932867251
O        -0.21933580178450    5.08702007149528   -2.63335055883365
C         1.06911636529800    1.57713345358098   -3.15331948278627
C         1.80210230520086    0.47750086568125   -2.33265423377740
C         0.91397406966067   -0.66417636939300   -1.74776291218920
N         0.08144486723940   -0.15026031306379   -0.64899661537608
N         2.58128221019415    1.10641007930694   -1.24779995636288
H         4.53405113889965   -1.61248019143091   -3.09500334609186
H         2.97947587123183   -2.24767785743811   -2.75611048428931
H         3.80351164467189   -1.37544575900519   -1.54790090162096
H         2.93814989460591   -0.13081717890870   -4.26366466018825
H         5.34126903653271    3.06772648008344   -1.50389968612128
H         3.84806116322354    3.50373709951410   -0.73893945520052
H         5.35425578868145    4.55167183739527   -3.29782166654148
H         2.22583571806972    4.09404123569060   -4.10224924606745
H         1.14876825410581    3.04937730171683   -1.53410660788661
H        -1.03347139081529    3.36613660933513   -3.13258773978927
H         0.29194051996070    3.93220416475504   -4.29628900215951
H         0.62917666371480    5.56946590870405   -2.64517725149846
H         1.62563589414270    1.58333435561079   -4.10006009046724
H         0.02992946278318    1.22180292829232   -3.13732971033040
H         1.53842830828720   -1.51677974015733   -1.48211700783779
H         0.24676657572494   -1.02151592334070   -2.54200676996800
H         0.47221632062726   -0.05815549982502    0.28546093084083
H        -0.90812167508856   -0.39995846383584   -0.68646621448223
H         2.12459460427849    1.52014958757035   -0.43754720899541
