35
 energy: -49.718334620124 gnorm: 0.108530233564 xtb: 6.4.1 (79825abcba525fcdf90b791dcacef51065a7a4e7)
C         3.24496743948460   -1.35938004357371   -2.75612262991386
C         2.89206710665865    0.04939868243327   -3.21031234296718
N         4.10742835146582    0.91077978143668   -3.12784031524487
C         3.96784202045286    1.60728090051002   -2.03686357207971
C         4.60326100992684    2.94877278288974   -1.85302352321299
C         3.92588468296877    3.81667591471210   -2.92036959983397
N         4.56386796799742    4.37047329606125   -3.90318728181241
N         2.59153790773318    3.59344588494477   -3.21650616260930
C         1.34766973808991    3.23422208135509   -2.50822853721374
C         0.17777658269204    4.11104963359941   -3.02509918918415
O        -1.04856949036010    3.70902802313701   -2.41444389384571
C         0.99617711617027    1.77460448216784   -2.87187801180557
C         1.87153370032085    0.68192170232796   -2.19383165739239
C         0.92204526457161   -0.32846561197506   -1.47836977213584
N        -0.18826023643934    0.36306243141774   -0.80493631816348
N         2.83983512126957    1.32847668996466   -1.28613351510284
H         3.68020864282644   -1.30403071032586   -1.75124491239187
H         4.10891170079566   -1.66733212386400   -3.35437668253144
H         2.36249701670909   -2.00056689691380   -2.80585227573343
H         2.51393381332549    0.05500741217424   -4.24166977766021
H         5.61516669055624    2.82400125287663   -2.24690942898022
H         4.50250783440508    3.31965262410673   -0.83112777101528
H         5.58607312668808    4.36099643429752   -3.79733660549062
H         2.32912344325285    4.15862887798684   -4.02743922656949
H         1.40662809765892    3.34515801323511   -1.41700124629512
H         0.09931654703547    4.03519839189860   -4.11446515185561
H         0.42623099999829    5.11695789838923   -2.66407523189332
H        -1.24121677352991    2.75207753439133   -2.41465675348434
H         1.01226461222063    1.76832783683538   -3.96995451061463
H         0.00572766364474    1.53921892230841   -2.45953301278490
H         1.46796475446052   -0.87066302629728   -0.70672398365215
H         0.60967740751314   -1.04264814204253   -2.25041273608812
H         0.08120935125216    0.77824097347704    0.08355085314220
H        -1.00360686641167   -0.25177429302680   -0.79149174643931
H         2.62184693577076    1.81491819295535   -0.41889117608871
