35
 energy: -49.726445243260 gnorm: 0.103935844879 xtb: 6.4.1 (79825abcba525fcdf90b791dcacef51065a7a4e7)
C         3.74324552440251   -1.37898081252807   -2.46251443116636
C         3.02000753133991   -0.22686342744949   -3.14445046981699
N         3.95661656421589    0.93368495052945   -3.18655717233005
C         3.62771534329172    1.60775439482575   -2.12246940937557
C         4.16225055041459    2.93745223671475   -1.69429810339252
C         3.53770831167723    3.96134043481685   -2.64976768193778
N         4.11056846143672    5.06560325479024   -3.01319533675958
N         2.42138817084722    3.53602608202204   -3.35044369330320
C         1.22911482775100    2.93654876360925   -2.72034991003931
C         0.00538026958594    3.80417981481735   -3.11318816314247
O         0.19385589513037    5.20062230660751   -2.88325067049542
C         0.95892813613460    1.46027027712184   -3.08623579065606
C         1.79842284035112    0.37335630762156   -2.35560708842006
C         0.86519661573995   -0.69854494678101   -1.71185788135961
N        -0.14055004032384    0.06861946853514   -0.96056939010621
N         2.62821667440319    1.05460146944515   -1.34224429746654
H         4.61946755163393   -1.38756746995410   -3.12163423344242
H         3.34247490153377   -2.39603161973113   -2.52679999271815
H         3.97432198752169   -1.11156638718717   -1.42934413727625
H         2.84150628603679   -0.60825162550834   -4.15904139447825
H         5.24626774194990    2.90662016208640   -1.83076509582105
H         4.02275520699883    3.15842594228045   -0.63425770315619
H         4.96126094410679    5.40690738159608   -2.54840361346817
H         2.24882211503972    4.12312257122420   -4.16986071660256
H         1.34235025353013    3.05733328409809   -1.63446376894243
H        -0.90652758500015    3.49946663685555   -2.58954560695747
H        -0.15576149217490    3.67870062160907   -4.19124550248924
H         1.11235801835277    5.46522386033087   -3.08125856224072
H         1.16412735184667    1.25615376771213   -4.14562237318083
H        -0.09821260153342    1.24247500542354   -2.88265893487874
H         1.49087662616073   -1.33250079838455   -1.08410963845220
H         0.38458116541369   -1.38368669361136   -2.42127332255892
H         0.23929991226444    0.68618360260438   -0.24731972088594
H        -0.61477816562861   -0.63896069143460   -0.39715738318130
H         2.19002029930275    1.49184139490293   -0.53412385453069
