35
 energy: -49.723935825659 gnorm: 0.110460306756 xtb: 6.4.1 (79825abcba525fcdf90b791dcacef51065a7a4e7)
C         3.60659438463869   -1.33262362422634   -2.55319577417643
C         3.07737736084233   -0.02615657463548   -3.12639526551128
N         4.10111204803843    1.04829317291451   -2.97340165790215
C         3.71927426385668    1.73349686906801   -1.93440010303437
C         4.20548703702925    3.12089370730466   -1.65893305121227
C         3.69386495466031    3.85465971231903   -2.90438578060761
N         4.32197932069880    4.80994336423066   -3.51475477422222
N         2.45722797996673    3.53390207475556   -3.43903836703152
C         1.29225780418937    2.94019752913966   -2.75473844420230
C        -0.07508250086284    3.66789429747994   -2.82869604179462
O        -0.03928638021809    5.01824546988535   -2.36640144126921
C         1.04291783820559    1.47283287623814   -3.16818991064161
C         1.85159387662338    0.48271319471715   -2.28181651830662
C         0.94876311411698   -0.65256900977945   -1.70707526366115
N        -0.21075860969849    0.00938283577149   -1.08915042053684
N         2.70819876412122    1.08963584891224   -1.24382330464195
H         3.94304682525345   -1.23223865374131   -1.51444638279390
H         4.45539952421516   -1.64738791811991   -3.16930888107997
H         2.82966036323347   -2.08741983715605   -2.69105032177785
H         2.79417476065117   -0.20726755713235   -4.17220094827918
H         5.29215892065865    3.20728648570557   -1.73860519228367
H         3.83455373498647    3.55378569477010   -0.72781167808221
H         5.31604643616794    4.94491073236747   -3.29156887833497
H         2.11078843235560    4.28217844751116   -4.04399102138469
H         1.52507865133204    2.99994163277763   -1.68292456356683
H        -0.67976557939989    3.13771855248197   -2.08579655222254
H        -0.62578414327905    3.60816616123557   -3.77583888779661
H         0.25533173711469    5.67044873032756   -3.03025257643609
H         1.39328103681155    1.41310629897785   -4.20729942657218
H        -0.03568178810073    1.26816201433578   -3.13416704485687
H         1.47591953624956   -1.27414610546093   -0.98375556743642
H         0.55199582388231   -1.29981130860614   -2.49911935128711
H         0.10178603995095    0.46602236904269   -0.23580833233116
H        -0.87463178342113   -0.75081019583222   -0.93302850579071
H         2.12339999715362    1.53260320508329   -0.53810111416949
