35
 energy: -49.721424291412 gnorm: 0.123834560521 xtb: 6.4.1 (79825abcba525fcdf90b791dcacef51065a7a4e7)
C         3.62070986765925   -1.40605343647466   -2.79096864959852
C         3.09891638747914   -0.01111015738706   -3.10297702101362
N         4.13656621894731    1.00528392055499   -2.76223095713254
C         3.68078189973581    1.71412973672930   -1.76994740320176
C         4.10264995703961    3.11769167541475   -1.47129018702100
C         3.54378953821680    3.84775822077817   -2.69848213674057
N         4.29899208227931    4.60467898860510   -3.43086516657403
N         2.39111277897893    3.48274189079797   -3.37384074105792
C         1.20833743057381    2.89651272442909   -2.71407952891031
C        -0.04138538044462    3.69960164266374   -3.15890862910674
O         0.00277561341711    5.09114835865053   -2.84253305700683
C         1.08071797073541    1.43033516114666   -3.18344952248237
C         1.85275645100249    0.44610813479175   -2.25867634980993
C         0.91385546949404   -0.65233388666258   -1.67030012041101
N         0.13699970166326    0.05386689293592   -0.63963162692490
N         2.54801971606944    1.17972821343315   -1.18258737559023
H         4.43334355294117   -1.63959900370780   -3.48908084480140
H         2.85019326788995   -2.17542192607656   -2.90723715504048
H         4.11573901679430   -1.51160410080177   -1.82341872673906
H         2.92254216811132    0.10447481828801   -4.18105245838685
H         5.16834468784454    3.34056537727834   -1.37490981460256
H         3.56244680365282    3.45853523424805   -0.58586361167708
H         5.26399221696422    4.61276584520389   -3.07744344228194
H         2.16948287415519    4.10917513679685   -4.15125130378664
H         1.37288969763467    3.12316987168841   -1.65195477940398
H        -0.94554035568332    3.44251316493486   -2.59762715747148
H        -0.05696983874346    3.44578642655158   -4.22626718922150
H         0.72363204218249    5.52370768357685   -3.33864362920400
H         1.55527825181439    1.45732870605218   -4.17346674426830
H        -0.00095626383095    1.23953721187371   -3.18481436795593
H         1.49083980535091   -1.42981062548334   -1.17023778088545
H         0.27632675179153   -1.05065522952115   -2.46941083720330
H        -0.40666318517014   -0.70921923149944   -0.24399698255695
H        -0.47691496168303    0.79896769047360   -0.97269118467688
H         1.93673939979899    1.65572982309832   -0.52227509939424
