35
 energy: -49.719278588865 gnorm: 0.104734697682 xtb: 6.4.1 (79825abcba525fcdf90b791dcacef51065a7a4e7)
C         3.67434876684048   -1.30555443335578   -2.52696575380439
C         3.10045130396961   -0.07326753201984   -3.21077505133465
N         4.04805799156227    1.07566942192473   -3.12207636694098
C         3.70481574507996    1.70919970768509   -2.03780122994760
C         4.14166360990416    3.06353358217468   -1.57725951830534
C         3.64724179073282    3.85360866348123   -2.79490094413694
N         4.45343830027385    4.33188518230986   -3.68985545671599
N         2.29968747377431    3.81498046710995   -3.11209973875508
C         1.15009008136204    2.99421713663848   -2.68468850588325
C        -0.14658629344846    3.75504638009263   -3.06468991768191
O        -0.18601506160257    4.87721820667004   -2.18286129173387
C         1.19246744303008    1.55542075352866   -3.24534941796454
C         1.89042654544263    0.47621638492039   -2.36892331216112
C         0.92259035579919   -0.58139712382560   -1.75325835234940
N        -0.06236876766920    0.10137799411797   -0.89992627326056
N         2.70556235558032    1.09462290889411   -1.30464706073253
H         4.65983793149119   -1.60595616328372   -2.90226242478803
H         3.02177923863929   -2.18431308711766   -2.49412795922166
H         3.97803785908740   -1.09035549484430   -1.50041326067261
H         2.88763877868279   -0.31726586515020   -4.26048456482759
H         5.22509505812217    3.20568596198460   -1.60248150235954
H         3.72551018655334    3.30555657752210   -0.59735380827890
H         5.45464674385439    4.33705550971600   -3.45800963348166
H         2.23134522397072    4.05403020987541   -4.10411292460104
H         1.07053609112346    3.09756173555360   -1.59402313957887
H        -1.07774856708368    3.18630843041482   -2.97468128092115
H        -0.16848093971727    4.04977264106120   -4.12137169666196
H         0.65285735831760    5.37366371137134   -2.13087875470902
H         1.61313165508933    1.60092800833847   -4.25877969057768
H         0.15588684560114    1.19242111628998   -3.23282721170924
H         1.40086769681081   -1.35826537577631   -1.15729706150815
H         0.49726845227463   -1.15054641127942   -2.58923148372987
H        -0.31888558792306   -0.43981729350491   -0.07791452250034
H        -0.89328305486357    0.54439438529934   -1.29529066901718
H         2.17982835494839    1.43366714207753   -0.50158650587365
