35
 energy: -49.728434957610 gnorm: 0.101236737128 xtb: 6.4.1 (79825abcba525fcdf90b791dcacef51065a7a4e7)
C         3.69578887803335   -1.29723205918229   -2.49408905632361
C         3.11969735673095   -0.00774722168872   -3.06050927006873
N         4.07314021390202    1.12849132790842   -2.89991450228704
C         3.66345363849552    1.73297443005946   -1.82214573504700
C         4.10442788977229    3.14480923354411   -1.59984156438475
C         3.76973402193416    3.72124378625084   -2.98079247106082
N         4.63373615362576    4.32720183594594   -3.73309556617135
N         2.44430349040767    3.65135939493488   -3.37621615883993
C         1.29075433853771    3.04217022914604   -2.68620177639568
C        -0.02932870323286    3.77565968339397   -3.03834633394766
O        -0.19165648365807    4.97699912992388   -2.28410554090779
C         1.04536226263406    1.56452677066778   -3.06385778084674
C         1.84098324298891    0.47881398512717   -2.28400736006627
C         0.85323277889954   -0.67604652680907   -1.93053492804489
N        -0.20164403357561   -0.17160632362736   -1.03763126034239
N         2.60226428075420    1.11144450881717   -1.18865959285773
H         4.61007515216791   -1.53690596567908   -3.04989001922866
H         2.93499047247673   -2.06628881713070   -2.66402896187567
H         3.91888261728660   -1.18576221519196   -1.43100330055748
H         2.96183410013372   -0.08035997611392   -4.14518479464251
H         5.17425296811882    3.21121519066354   -1.38599188308933
H         3.46472783806557    3.68134705832972   -0.89636092640276
H         5.53020534538188    4.32255890979066   -3.23058287969835
H         2.28171934808119    3.93570208634648   -4.34504081228465
H         1.36859037577797    3.13656641812366   -1.59460167678059
H        -0.84024137230809    3.10833980106617   -2.72893979074996
H        -0.13334610215486    3.98981371525434   -4.10943818236296
H         0.03537657529175    5.83735227876268   -2.68549775045054
H         1.15580688991337    1.49204526449857   -4.15409565187338
H        -0.00991313420083    1.36052305322222   -2.83758097490489
H         1.39370821152296   -1.48535293644340   -1.44027703968931
H         0.35913211436668   -0.91124000424832   -2.88144463377641
H         0.15028451732383    0.50909238286399   -0.36890702574362
H        -0.66220185103769   -0.90932143886610   -0.50222675178956
H         2.01839580688062    1.63094053489986   -0.53637517393161
