35
 energy: -49.725005418443 gnorm: 0.111229995001 xtb: 6.4.1 (79825abcba525fcdf90b791dcacef51065a7a4e7)
C         3.75670472777450   -1.26878866694450   -2.64460976953105
C         3.12342688836482    0.04618796395816   -3.07505150838083
N         4.04832975801156    1.19880220781428   -2.87031485608486
C         3.63581986437328    1.83207830484598   -1.81030286646119
C         4.04000141858794    3.25326184824161   -1.57786021625428
C         3.62387292045414    3.77326717933847   -2.95907480940824
N         4.44205098059586    4.20624283153519   -3.86613686066264
N         2.28048796947365    3.65166769350499   -3.27298610252286
C         1.15336684060228    2.92753040366159   -2.65401104225165
C        -0.06314714984612    3.73947800745902   -3.16924560064896
O        -0.10591840013210    5.08605615866588   -2.69665289698620
C         0.95361904388550    1.44111000780363   -3.02404721029763
C         1.87496883994863    0.47861194071312   -2.22113766973739
C         0.96281443132893   -0.67479256758940   -1.69966959821054
N         0.07410266938856   -0.09828133497785   -0.67872484564403
N         2.60530817552227    1.18631209555812   -1.15094053799840
H         4.52348204152939   -1.56958171205575   -3.36838720622252
H         3.04982470981027   -2.09925442551102   -2.74355089368865
H         4.19816231545423   -1.28101061092981   -1.64595392876265
H         2.81465771931839   -0.03507663322276   -4.12613290024127
H         5.11498575105168    3.30422454810946   -1.38686640348554
H         3.45558198059899    3.77972586409259   -0.82071850416722
H         5.42268736790199    4.28104754873810   -3.56788512712405
H         2.28348623703240    4.02069283101222   -4.22677699136103
H         1.24826826013611    3.17612475459516   -1.58829322852572
H        -1.02100599261403    3.32357239503849   -2.84037395977921
H        -0.08985145366480    3.73092710370405   -4.26611983884615
H         0.82806912155061    5.36425040013367   -2.64059457895438
H         1.15155043055660    1.39038995363394   -4.10308421350839
H        -0.06895644132604    1.10120969452573   -2.81136898191730
H         1.52914221113947   -1.49755520745285   -1.26403460875817
H         0.42256259301460   -1.05639204474137   -2.57499268326387
H         0.42823934528333   -0.28821001802664    0.25557213611396
H        -0.84920573183987   -0.52790449155748   -0.75567045376234
H         2.16191101451873    1.93772397897035   -0.62650499683524
