35
 energy: -49.722045157975 gnorm: 0.101100295142 xtb: 6.4.1 (79825abcba525fcdf90b791dcacef51065a7a4e7)
C         3.36205080833992   -1.40979308873815   -2.60662361113022
C         2.71831606094783   -0.17974054845707   -3.22956886187789
N         3.86757092400103    0.77152502965583   -3.24331922292305
C         3.77797641268682    1.52662787137312   -2.18661635986872
C         4.56985286388647    2.78792922941750   -2.04803245235338
C         3.83319596876824    3.81704527944345   -2.91381473547064
N         4.34148672974799    4.95650941807123   -3.26439537519774
N         2.55945643629705    3.56733585677810   -3.39676675428800
C         1.33695815724361    3.09357182917389   -2.71930635882768
C         0.23216637647199    3.99534092140823   -3.32830509438476
O        -1.12240241703597    3.87920640915666   -2.89229808985035
C         0.99978126788667    1.62066401471948   -3.04043852253551
C         1.75048847294420    0.53557788352827   -2.21643701518586
C         0.82287205592708   -0.33560296728771   -1.31373646741134
N         0.49968188586890    0.54047978855823   -0.17684196687762
N         2.73002168483423    1.20931745933797   -1.34113899166473
H         3.62515680460166   -1.17054646458290   -1.56940908451211
H         4.35460958425092   -1.64091575118946   -3.00731236106317
H         2.78026083357064   -2.33346203114064   -2.58009480428800
H         2.40857949556562   -0.38573243116704   -4.26317663114198
H         5.56848871954503    2.60515897051749   -2.45298750753053
H         4.61439819628049    3.19351464678426   -1.03536756257010
H         5.30089244054724    5.18240239539182   -2.97334451436242
H         2.41695622375889    4.35252758431712   -4.03635510005229
H         1.36227620162527    3.19955761653127   -1.62628948280212
H         0.24062880992820    3.73039312183066   -4.39054736805933
H         0.46351580817043    5.06633814359343   -3.27032478155449
H        -1.11039975829893    3.80551226344396   -1.91900863204604
H         1.37182502999480    1.48992185531352   -4.06540688926991
H        -0.08719485233001    1.52581303517237   -3.16657763148960
H         1.40827304891266   -1.21832020979894   -1.05769093981326
H        -0.05289233430776   -0.60663607257879   -1.91644576724896
H         1.23956783836395    0.55379820661643    0.52085993005688
H        -0.37805591754846    0.37543454697882    0.31846753432592
H         2.29759211580107    1.90515675196475   -0.73693220969546
