35
 energy: -49.722148780144 gnorm: 0.097591214001 xtb: 6.4.1 (79825abcba525fcdf90b791dcacef51065a7a4e7)
C         3.18146933687498   -1.43681281597046   -2.97159618313513
C         2.82197376617063    0.00950153155593   -3.27887810642231
N         4.03827200291730    0.87210906014909   -3.22979817849916
C         3.92884653236529    1.60951437352274   -2.16251757830966
C         4.61873619645449    2.89378572693506   -1.82807135760391
C         3.83562461977552    3.87954134827504   -2.70348228957646
N         4.36376904002219    4.94507784881028   -3.21859416769147
N         2.60167036605592    3.50735210032732   -3.21027800882405
C         1.29767680804262    3.16212771036279   -2.61167305280914
C         0.25824083391731    4.05955153298063   -3.33197518822299
O        -1.06559600659145    3.92048905757354   -2.81567720986442
C         0.94903970471998    1.67568732263492   -2.84665958387612
C         1.85720662420296    0.59964067701806   -2.18536681316636
C         1.09953259608027   -0.41940791124790   -1.27885339421905
N         0.03819852072264    0.22126428189185   -0.48663430297310
N         2.86020001808478    1.28480575442324   -1.34625418496573
H         4.02079440149436   -1.48254145322950   -2.26752231757602
H         3.55691889982678   -1.93642966272234   -3.87079733486461
H         2.37398515812128   -2.02654624500876   -2.53281212944095
H         2.42940281141745    0.08698716393902   -4.30191204127840
H         5.68487314377238    2.91008572865930   -2.06839083300081
H         4.65544865489421    3.04045709967279   -0.74681574743122
H         5.26590066155853    5.11260834414203   -2.75567987815337
H         2.47871295763498    4.07747202503241   -4.05036750035381
H         1.31714905028431    3.49204937828922   -1.56413670452170
H         0.29343114151883    3.86313658024441   -4.40845574984536
H         0.49909405717793    5.12417175957268   -3.22020387898189
H        -1.63085116545739    3.26892970468546   -3.27265015609754
H         0.98664606496152    1.56768898765709   -3.93890146644686
H        -0.05117132547189    1.46425902325894   -2.44503682985372
H         1.82458546283216   -0.80725701827001   -0.56379062299832
H         0.64914565290756   -1.18583676033135   -1.92183016236634
H         0.27439952587087    0.50919206444293    0.45978167954217
H        -0.65187777858510   -0.53051326980179   -0.44638134341655
H         2.62195252232570    1.92210463693055   -0.58906085307719
