35
 energy: -49.722661929673 gnorm: 0.104093987351 xtb: 6.4.1 (79825abcba525fcdf90b791dcacef51065a7a4e7)
C         3.51154505386484   -1.34798560398226   -2.17754426715405
C         2.86547019780767   -0.26086389419752   -3.02385279104716
N         3.81377338418823    0.87182189453437   -3.23272111469297
C         3.74009149917903    1.68820418765729   -2.22132637408676
C         4.35635046916705    3.04916192503402   -2.14939719478419
C         3.84084893233539    3.88461088981617   -3.32736381230589
N         4.54999240203385    4.77144388364735   -3.95209380713060
N         2.53949998537377    3.62551258915140   -3.72406120324282
C         1.48328101280889    3.08919354044919   -2.84390761565160
C         0.16028988236167    3.88781382967356   -2.97248418274752
O        -0.86691475803705    3.27116072768693   -2.19593055447155
C         1.14763344460477    1.61150511068728   -3.14398953133061
C         1.83770612958203    0.59223871908376   -2.19275485874843
C         0.78585275632302   -0.23599383917338   -1.39154835930476
N         0.19447617415067    0.52657136380052   -0.28102145240638
N         2.77226991122059    1.31383937938849   -1.30650435311458
H         3.64610786871158   -0.92992463198259   -1.17285747211506
H         4.44814098656274   -1.67665775226209   -2.64004265555842
H         2.94632616715766   -2.28224457796283   -2.18349789770758
H         2.54635209267117   -0.56403549517208   -4.03031442832748
H         5.44822875255557    3.00292995006868   -2.16760527664701
H         3.96274484496504    3.54455162537553   -1.25965697942425
H         5.53347934010950    4.75277980805716   -3.65443182104992
H         2.12802671238257    4.31546608220719   -4.35695891654064
H         1.86242399713131    3.26379179309219   -1.82787320018868
H        -0.15276545463970    3.74548652706100   -4.01189117329755
H         0.24583128589649    4.93707210232993   -2.66319617797754
H        -0.81316730691945    3.61614334752589   -1.28435748306574
H         1.34345230875305    1.39097847980604   -4.20186153528345
H         0.07601778037446    1.45227676640619   -2.96312748525989
H         1.34127353837520   -1.07653122687776   -0.97627975235688
H         0.15049368605478   -0.73985811543865   -2.13054791395334
H        -0.13955053854921    1.42795450003226   -0.61318275809792
H        -0.69697200686499    0.15208458766293    0.04772598389599
H         2.39795057384712    1.98540981157935   -0.63932247430033
