35
 energy: -49.727266220431 gnorm: 0.108278760138 xtb: 6.4.1 (79825abcba525fcdf90b791dcacef51065a7a4e7)
C         3.72816511556762   -1.44665059245120   -2.62798325817933
C         3.05623696652673   -0.17073140791042   -3.11380960978203
N         4.02052750280520    0.96700132387642   -3.07393487182034
C         3.76162383305533    1.65174599816612   -1.99740246300121
C         4.16393827106917    3.07168853109204   -1.75437735041228
C         3.62229703309032    3.93687620005762   -2.89866631753399
N         4.29200105307532    4.81830432943672   -3.57262905430628
N         2.28369218839839    3.73437437379740   -3.19045375993613
C         1.20077870532484    2.96762878742311   -2.54446106425461
C        -0.07994916737359    3.76808015716235   -2.89609376406842
O        -0.04201401798608    5.16257870294514   -2.59215185411537
C         1.10928518058381    1.51603783274125   -3.06483033049480
C         1.86972166672801    0.41910085646650   -2.26582012171995
C         0.93491174975609   -0.67224151031911   -1.65803823720712
N        -0.24563522523162    0.03114847501369   -1.13263044451704
N         2.73205729307219    1.08368063121432   -1.26869026919476
H         4.01403139082158   -1.44481823396979   -1.56942065028315
H         4.61645173808236   -1.61715578155200   -3.24524895347934
H         3.07451109359081   -2.31143707122806   -2.75924038006864
H         2.73819136703669   -0.43114398569069   -4.13250814612013
H         5.23057375695576    3.30821773009195   -1.78615487978790
H         3.79938088345100    3.39471740280837   -0.77727743417795
H         5.22636468626144    4.84207383177039   -3.14531514031071
H         2.04266410071585    4.48316840719870   -3.84399683541786
H         1.43745888938644    2.93732873576591   -1.47225573088767
H        -0.91850710801013    3.24135821612571   -2.42917602885995
H        -0.09237670295666    3.67568286860464   -3.98935843156034
H         0.86447827741681    5.46370250935544   -2.39099661242323
H         1.45583678325113    1.51876450466082   -4.10692666024720
H         0.05796383449991    1.20003944931248   -3.02886748504247
H         1.59216138969853   -1.21730691341800   -0.98100797221916
H         0.53693661077034   -1.34508337586467   -2.42783062524936
H        -0.05367984238853    0.44532689655632   -0.22378177445553
H        -1.01124970416900   -0.63164113371106   -1.00019370352251
H         2.20798590759253    1.65417389832964   -0.60828122820688
