35
 energy: -49.723729869753 gnorm: 0.124890089602 xtb: 6.4.1 (79825abcba525fcdf90b791dcacef51065a7a4e7)
C         3.67808811834031   -1.32001046012154   -2.65943704000804
C         3.01496963498791   -0.04692728906811   -3.16442967478733
N         4.00735617145033    1.04843837607439   -2.96139018636298
C         3.67943712944326    1.70663046831281   -1.88710870636335
C         4.20737253218114    3.07576183176039   -1.59742186532532
C         3.71489432469846    3.87949599435263   -2.80688405521352
N         4.47860018352668    4.49899796093037   -3.65104960425904
N         2.42954051725453    3.67728902048735   -3.28121278382518
C         1.21256842612020    3.04166093045405   -2.74004480475583
C        -0.05232115598216    3.78221313550382   -3.24627457615795
O        -0.10501867360617    5.00964556533448   -2.51889671195568
C         0.98043927791080    1.54179101215989   -3.02775609556785
C         1.86296636338297    0.51981839507806   -2.25531218626391
C         0.90299304243964   -0.58648245716234   -1.71786804996854
N        -0.13026554857806   -0.14837516086862   -0.76658436653935
N         2.61764470301051    1.18145540133674   -1.17260538672471
H         4.59700509096270   -1.40531868860477   -3.25154495918749
H         3.11168733553965   -2.20381674545721   -2.97123614679881
H         3.89435857060820   -1.42136849834321   -1.59393185369435
H         2.76987178483504   -0.07501331680880   -4.23487473884018
H         5.26113825764994    3.24878517859337   -1.36438143236399
H         3.68532443171044    3.43612207474280   -0.70883856627598
H         5.45533606073435    4.56342783664289   -3.33794677749368
H         2.33371794266216    4.12471660062250   -4.19583411345457
H         1.22774730044444    3.05009078216815   -1.64174684351050
H        -0.96799857410908    3.24842944686179   -2.97198016029641
H         0.03339701672120    4.01124863549860   -4.31590743724379
H         0.71045309195566    5.53046455323995   -2.64781777763948
H         1.11867671343443    1.18394685967710   -4.05678873532989
H        -0.04014888128461    1.24046063373141   -2.75568131783360
H         1.44512782895974   -1.36084835473465   -1.17575119185858
H         0.44033415946169   -1.12774303275964   -2.55253232391237
H         0.19191236109120   -0.27485544921588    0.18976320000443
H        -0.96261931657050   -0.73480668456287   -0.84583306615800
H         2.04040806055836    1.79256136653021   -0.59849664689837
