35
 energy: -49.718213393301 gnorm: 0.115288612677 xtb: 6.4.1 (79825abcba525fcdf90b791dcacef51065a7a4e7)
C         3.43174103852593   -1.36931299947582   -3.02150713130002
C         2.87678281072425    0.03659109880588   -3.19740330705533
N         3.98258108978327    1.01365782413903   -2.97732881755621
C         3.71791121084369    1.71964278966607   -1.91602607304107
C         4.28955183730679    3.08293675193034   -1.68840462374112
C         3.88221474792568    3.72489877956697   -3.02005152216843
N         4.64471429779837    4.46588670405759   -3.76111572502821
N         2.56783557454532    3.69437591624896   -3.45535095464016
C         1.40301027004541    3.11013082876055   -2.76271349591999
C         0.22353656216693    3.98576626078470   -3.25943898436847
O        -0.88619914532490    4.06696176183912   -2.36482179828817
C         0.89744810735960    1.65342038785796   -2.85584300616762
C         1.79406059584005    0.57110738709969   -2.18903247165558
C         0.85804233836650   -0.45942459445219   -1.48463896948778
N         0.06935952934430    0.29066336382786   -0.49476551501949
N         2.70017324325189    1.14603476066365   -1.17514129296536
H         4.11487710427514   -1.42048260023935   -2.16536201241332
H         4.19469203720721   -1.47922760833581   -3.79930314273971
H         2.66051027978043   -2.12938049305935   -3.16239071737408
H         2.53616212714674    0.16751038754371   -4.23352690078849
H         5.37595799736438    2.96301819134886   -1.69129335202406
H         3.87767197089629    3.61390311885634   -0.82793748583532
H         5.65616922208834    4.48074809227388   -3.57963394162721
H         2.44612455575713    3.96325960066005   -4.43453101046306
H         1.56086669802018    3.42420679885337   -1.72204182600036
H         0.00920170477030    3.55171005505541   -4.24141830176911
H         0.65129494843514    4.99363018149091   -3.33121932925015
H        -0.73950774828300    3.46434805825259   -1.61102764925665
H         0.68782587784303    1.44864567839007   -3.91423614683773
H        -0.03857214462989    1.76696334071203   -2.29246128651067
H         1.42269200509930   -1.30031190293657   -1.08274017190021
H         0.16095213741910   -0.87854697044941   -2.22090141726329
H         0.65325958983126    0.77873280667432    0.17995329758212
H        -0.51089311881747   -0.37559446517222    0.01748682049222
H         2.36606564480701    1.55340980558663   -0.30412397757080
