35
 energy: -49.726955200481 gnorm: 0.103454158096 xtb: 6.4.1 (79825abcba525fcdf90b791dcacef51065a7a4e7)
C         3.62756464716338   -1.50471108971525   -2.92649243627739
C         3.04125375450300   -0.11477559208523   -3.12600004572616
N         4.01476732194748    1.00503595603688   -2.97051554932046
C         3.70802974640726    1.72705252534340   -1.93155811653826
C         4.18594973153101    3.10827305957926   -1.61378893490136
C         3.61916913767749    3.96408249503296   -2.75294307062949
N         4.29704809720167    4.88099587385501   -3.36889336991391
N         2.35845251771624    3.68010966028245   -3.25090176451883
C         1.21587813268461    2.98492362109420   -2.62708520874295
C        -0.06570981491184    3.73151260389279   -3.07959935774542
O         0.03558974549927    5.13063587481609   -2.81382044206400
C         1.00990707127099    1.47781556297837   -2.89629283205428
C         1.92339302476988    0.44744459292047   -2.17253128724830
C         1.00647468840772   -0.69507499756438   -1.63568278676111
N        -0.13932275523957   -0.09092534464657   -0.93807731483758
N         2.69584833904714    1.18967611868856   -1.15667593673789
H         4.18217866647136   -1.62076694606584   -1.98776350545222
H         4.38062636571697   -1.49485055651334   -3.72144080144208
H         2.83659540449636   -2.22093655420585   -3.15830358405148
H         2.59205151010707   -0.11998531360813   -4.12844935912718
H         5.26023950420828    3.30197128779434   -1.66901228345768
H         3.90666281300843    3.38560009552803   -0.59542626771371
H         5.25446899326756    4.94590195126047   -3.00102111638814
H         2.25193117557472    3.89395077837723   -4.24530146468184
H         1.31034349847914    3.12407663751786   -1.54160254423783
H        -0.85051346172045    3.35659949107398   -2.41465500562398
H        -0.30809240700739    3.65660639318978   -4.14710067593105
H         0.54546313108642    5.61700271378644   -3.48935259441774
H         1.18255422038391    1.22575000336096   -3.95115117599460
H         0.00935553514532    1.24598980255556   -2.50696222826057
H         1.53146697732939   -1.37517920104883   -0.96539573824009
H         0.56850195319607   -1.31835607502582   -2.42522777452665
H         0.21025397678764    0.39324899601915   -0.11481073822323
H        -0.73844391219998   -0.83351359684427   -0.57391853958624
H         2.16391379923482    1.76898078787580   -0.51037474434877
