35
 energy: -49.722311026646 gnorm: 0.105037763680 xtb: 6.4.1 (79825abcba525fcdf90b791dcacef51065a7a4e7)
C         3.37329754773166   -1.45435501592508   -2.73792487991358
C         2.98738792549916   -0.04773182476398   -3.17147924495030
N         4.15629865289828    0.87156732690653   -3.05140103667538
C         3.95397043792001    1.58286287642210   -1.97997658542336
C         4.63810287238925    2.90926380486879   -1.88109116703556
C         3.86441442159652    3.70432842561419   -2.93967541953044
N         4.25663647890370    4.16042149529675   -4.08762393194749
N         2.54822128266126    4.08588515338546   -2.73952564132340
C         1.36763985936911    3.24364165158413   -2.46610225659587
C         0.04501938532748    3.95874869847900   -2.84548176061453
O        -1.06233523201511    3.29265494817064   -2.23841436803196
C         1.34669611843259    1.85270834716721   -3.13776989330514
C         1.93629709394043    0.70206995437469   -2.27269554409207
C         0.91820863495577   -0.21850816260171   -1.53085436441603
N        -0.20438351477001    0.54092625266254   -0.95853610648348
N         2.84060765629049    1.23673408568857   -1.23543299265927
H         3.22243843211143   -1.48482323326935   -1.65229561830851
H         4.41648450525551   -1.60117506753506   -3.03683443587020
H         2.85031641664094   -2.25201407187268   -3.26950594317805
H         2.66030334521073   -0.06661578983829   -4.21998936830202
H         5.67063080226738    2.92808844526330   -2.23913983091535
H         4.53591709458433    3.34951587990209   -0.88725507733649
H         5.23150273427687    3.88405672229934   -4.25925104436752
H         2.30990736873169    4.62812531506607   -3.57324483619243
H         1.25148607350249    3.17332299303371   -1.37609149385971
H        -0.10568266834099    3.87815459424653   -3.92687950124736
H         0.07037365042931    5.03394872356985   -2.62817693700396
H        -1.49016336208279    3.86096577879543   -1.56994361283945
H         1.89516077667136    1.91554433195394   -4.08714250393718
H         0.27473349646938    1.64093906067696   -3.24946041139205
H         1.44551606084966   -0.53634029078685   -0.63175872211561
H         0.72188561102493   -1.07429647509827   -2.18870261932459
H        -0.79218199893267   -0.02500022078433   -0.35139798184447
H        -0.72515974049245    0.95801573650763   -1.73172661782756
H         2.45946646958859    1.94326714658221   -0.60949696778875
