35
 energy: -49.729904456330 gnorm: 0.108155441622 xtb: 6.4.1 (79825abcba525fcdf90b791dcacef51065a7a4e7)
C         3.68725490560018   -1.30416032683004   -3.00679067268306
C         2.95633973003426    0.01208172443348   -3.22759440677081
N         3.96259022657844    1.10118251056024   -3.06266591613478
C         3.69020481783135    1.62975027242121   -1.90454212430610
C         4.11684639944685    3.02730878545357   -1.58522711937856
C         3.57293376427794    3.87952614779504   -2.73813942598997
N         4.08984830231864    4.97486750293268   -3.19930260758720
N         2.42927050430607    3.48314569559348   -3.41113773639461
C         1.24136483078032    2.95119414357081   -2.71556990373610
C         0.04269029469737    3.90069227589771   -2.97298875715470
O         0.45624443631939    5.21794019326253   -2.60928990881602
C         0.84046180982600    1.47421789202627   -2.92554470216954
C         1.76911383447302    0.40920950359363   -2.27491871051153
C         1.01113670784797   -0.80330180155913   -1.65075244366413
N        -0.17844989720045   -0.32162199097930   -0.93146791656624
N         2.65355453371601    0.99233743644149   -1.24667585325028
H         4.30202854837970   -1.26737565389014   -2.09960936116762
H         4.34223588358206   -1.42326758610033   -3.87624766254045
H         3.00036839633837   -2.13737463482213   -2.84465338504232
H         2.62468943256053    0.08443656316914   -4.27233708738622
H         5.20483035147385    3.13120858074267   -1.59798974739765
H         3.81515213315674    3.41167396743253   -0.60889830148983
H         4.96685868707896    5.17557963910562   -2.70254815022353
H         2.37051990112626    4.00795066404851   -4.28694233602718
H         1.33673615896125    3.05415415965164   -1.62613728785879
H        -0.83258128576553    3.67064319625359   -2.35686809617496
H        -0.31744372558832    3.91090799503363   -4.00938561396846
H         1.02125029520786    5.62963180196563   -3.29057227226386
H         0.83358102075239    1.29956307634693   -4.00975803020475
H        -0.11816051715560    1.31669538983841   -2.41304615724186
H         1.64811661252603   -1.45707473410542   -1.05553744168492
H         0.72165985045759   -1.42997676160705   -2.50349058931132
H        -0.00882431189243    0.51595269574230   -0.38002223481509
H        -0.52560459256823   -1.00619420792187   -0.25779174855923
H         2.19858182233381    1.46885344502002   -0.47066954111945
