35
 energy: -49.725404193647 gnorm: 0.109298935257 xtb: 6.4.1 (79825abcba525fcdf90b791dcacef51065a7a4e7)
C         3.37196852836503   -1.47094561482469   -2.57475047133484
C         2.70208442714741   -0.17148838253718   -2.99682938726774
N         3.78055844176343    0.77997083587019   -3.39369352085468
C         3.82085744127207    1.63373819266199   -2.41171302636165
C         4.51596506232541    2.95059454973723   -2.27075327089637
C         3.59676144112038    3.88758556322841   -3.06349201051448
N         3.88107396719386    5.03845481658605   -3.58723922796958
N         2.32485143509491    3.44932519490578   -3.39240327492405
C         1.24483791576680    3.09602424818572   -2.45077904178915
C         0.02708254934481    3.97432670175293   -2.83844963299795
O         0.18841692821959    5.38281551993153   -2.66940403104208
C         0.86951783093836    1.60001091084828   -2.53651376955886
C         1.90346682573308    0.62662043116647   -1.90136646473208
C         1.11378821429496   -0.22564581937721   -0.86004689895656
N         0.01246700238092   -1.01205072534744   -1.43724778445561
N         3.02506936580516    1.38170648617098   -1.30856827392543
H         4.15953095539406   -1.31705170988954   -1.82752910965813
H         3.84340776129324   -2.00914038338572   -3.40374595506338
H         2.61321297122525   -2.07788306584098   -2.07648889421571
H         2.06863496967810   -0.39796135518104   -3.86525680460523
H         5.48176066495031    2.88039150227538   -2.77768277348565
H         4.67300867565351    3.30643012937015   -1.25060998347423
H         4.88098342383679    5.27455576575274   -3.56204035793704
H         2.05925025288868    3.77191615918785   -4.32583600780915
H         1.39621976752124    3.28088161562514   -1.37864511481301
H        -0.78979308935696    3.70567651553879   -2.16082963475278
H        -0.33533232405015    3.77740306376165   -3.85520715684599
H         0.91188168210431    5.65251971685542   -3.26666917811696
H         0.60211195862892    1.32032088734999   -3.56429671325242
H        -0.09960772778813    1.47067530195775   -2.03602119863173
H         0.66415631298142    0.55744449621481   -0.25009274545154
H         1.75304696204398   -0.81640861338119   -0.19219342733826
H         0.31852365940193   -1.71058243419859   -2.11013656172895
H        -0.47880411411939   -1.59761512682457   -0.75992799167060
H         2.98314839738736    2.12484668439399   -0.61413415481624
