35
 energy: -49.717044485944 gnorm: 0.107279896620 xtb: 6.4.1 (79825abcba525fcdf90b791dcacef51065a7a4e7)
C         3.41377615759503   -1.41550550690131   -2.27169454955663
C         2.85967715244142   -0.19094251623452   -2.98506978002348
N         4.00270329477228    0.76351999057319   -3.07658245234437
C         3.80880048955511    1.65105724037275   -2.14410846110716
C         4.38041254115449    3.03277519414163   -2.17974673213371
C         3.75050741297113    3.83686848390430   -3.32341439200528
N         4.34610708705079    4.78899203970761   -3.97022703229878
N         2.49195757110016    3.53212285612658   -3.81452769529450
C         1.37132782536936    3.16625178296167   -2.92670206632861
C         0.08680165179771    3.99272662365004   -3.19421597467443
O        -0.75489542146930    3.63148164228511   -2.09900180872739
C         1.09799256849368    1.65414422423386   -3.08510069001736
C         1.81380015020952    0.63682426990871   -2.15095332864438
C         0.91030826788743   -0.31215832509260   -1.30394035161953
N         0.30312901612768    0.31638310808945   -0.12039864043068
N         2.73036617904343    1.42851396234244   -1.30674300541530
H         3.61064189385825   -1.16353768759535   -1.22286959679144
H         4.34496219994126   -1.66055107808163   -2.79321857115267
H         2.86684658233657   -2.36045463315625   -2.25475786503880
H         2.68789272552820   -0.40652168496102   -4.04842773547037
H         5.44005432979037    3.05513819300367   -2.44681660836761
H         4.16831972128361    3.47077307191385   -1.20242974135340
H         5.31278947118555    4.95628038763154   -3.66406148096958
H         2.18111476503098    4.15130383840276   -4.56678913346087
H         1.66800175727580    3.39742657932566   -1.89466394151439
H        -0.46041717978307    3.62456342571969   -4.06807809658515
H         0.28164681644494    5.07032508229381   -3.26303641981800
H        -0.92988165768148    4.35250901370576   -1.46467806785629
H         1.41418824427351    1.42644373564477   -4.11186405043270
H         0.00895252374156    1.51506028020762   -3.11784677374453
H         1.56376077970632   -1.14105803949006   -1.03307426362971
H         0.14392998116166   -0.76009864585237   -1.94868408873113
H        -0.30028561562205    1.08835255142981   -0.39307151553224
H        -0.17241434318223   -0.48282304320521    0.30164771681574
H         2.68897230993933    1.43985833750210   -0.28968287117473
