35
 energy: -49.716957993079 gnorm: 0.120206324985 xtb: 6.4.1 (79825abcba525fcdf90b791dcacef51065a7a4e7)
C         3.64754733439966   -1.36538541948021   -2.25886060648432
C         2.93693217169756   -0.21411682842656   -2.95534547246861
N         3.91239413348702    0.88709517206044   -3.20371638839431
C         3.81712079181613    1.68273219771868   -2.17769828547116
C         4.61209737594023    2.94967810672012   -2.17379450771549
C         3.85782234629972    3.80506751751380   -3.19883124511885
N         4.36202252979263    4.33345280745681   -4.26945534879107
N         2.47511341178962    3.84000231458120   -3.26886971017043
C         1.33379266404221    3.10049767036481   -2.69578438950102
C        -0.00402031365101    3.85323869424095   -2.91548695450972
O        -0.95828603332830    3.29828233046948   -2.01003329448708
C         1.18742812319845    1.65680351657379   -3.22549766615376
C         1.85913078301363    0.67076949143620   -2.22724712452717
C         0.85268557003778   -0.13502790706589   -1.34858043073902
N        -0.16281632825879    0.67437994642009   -0.65712052945286
N         2.76461774677061    1.40727160200375   -1.32324770029141
H         3.99606371099078   -1.02348655455748   -1.27706674630167
H         4.59743552206921   -1.47801789679333   -2.79193512186885
H         3.03984761738333   -2.27092005882661   -2.20358188506445
H         2.55659253155333   -0.57537057312417   -3.92051484430222
H         5.64478443309574    2.80255005212518   -2.50025723727085
H         4.67440536666909    3.52711064550856   -1.24931445075622
H         5.38939441084889    4.33439961801777   -4.24292823629246
H         2.18101780820998    4.45337691484304   -4.03253519194969
H         1.46914937096542    3.00842925520119   -1.60961595974764
H        -0.44146167335194    3.70269434673829   -3.90776163872211
H         0.29040321876544    4.89460594674596   -2.73441138942772
H        -0.81861309174645    3.70519832466727   -1.13380381304270
H         1.65489608636176    1.50714759453613   -4.20791662694873
H         0.10647317202336    1.47083995064361   -3.28362527455395
H         1.45454898706173   -0.62767504801328   -0.58536186011919
H         0.39567627018490   -0.85278429462256   -2.04114738177689
H        -0.89585474402936    1.06853798646722   -1.24166364674871
H        -0.46198679558539    0.14927258401662    0.16613785957148
H         2.50794499698673    2.15844154146576   -0.68597514707933
