35
 energy: -49.726078190032 gnorm: 0.114988390292 xtb: 6.4.1 (79825abcba525fcdf90b791dcacef51065a7a4e7)
C         3.67321813976261   -1.46498558995962   -2.78249649741253
C         3.11760219779728   -0.08149478750492   -3.08701010254051
N         4.08432907864000    1.04147467897771   -2.91305406491803
C         3.71782650039462    1.72195142497693   -1.86545887630833
C         4.09747228907001    3.13679645499929   -1.56340331434233
C         3.65192627912644    3.84951283888597   -2.84591892710025
N         4.49471272039633    4.47972206376737   -3.60235276302110
N         2.38550775601089    3.62978968561484   -3.36158905842608
C         1.20399402662796    2.99462847344864   -2.74636349851850
C        -0.03321860019497    3.81175903400086   -3.20049384690166
O        -0.12956179156692    5.07083305375262   -2.53423822655845
C         1.02569843929197    1.48786524920752   -3.03644412856673
C         1.87693570420375    0.43559089420147   -2.26958987834417
C         0.91485855673345   -0.59019567475134   -1.59396719813969
N        -0.20352613505589    0.04382221543182   -0.87860787869237
N         2.63953454563935    1.14215611813793   -1.22136970991243
H         4.66695807469660   -1.52049973061697   -3.24257996529194
H         2.97542738626656   -2.26791846369992   -3.04235979924576
H         3.89910329224554   -1.53383357752413   -1.71638978866461
H         2.78855896733991   -0.06591237884094   -4.13496151261301
H         5.18048128625919    3.22954837889242   -1.44870487407664
H         3.45800834441057    3.45058955490752   -0.73600150259634
H         5.45065728658978    4.65139149201692   -3.26635104945453
H         2.22913783497718    3.91085948574125   -4.33238965519338
H         1.32014934258130    3.14302443517199   -1.66421449775442
H        -0.98882898204080    3.40222444577294   -2.85739355872665
H         0.01173566694461    3.96421602032803   -4.28615277316324
H         0.78711857387321    5.34473964261175   -2.34048697239253
H         1.24470683296230    1.57551914174171   -4.10902154967369
H        -0.03686964369445    1.21979062305279   -2.96221531695487
H         1.49740457443520   -1.28787619868056   -0.99286373451464
H         0.54589939487090   -1.17921737974469   -2.44285074535227
H         0.12088464282369    0.24644246430273    0.06378228440224
H        -0.99228569527212   -0.60483999820002   -0.88813534482610
H         2.15892992986667    1.50465951712766   -0.40047753469288
