35
 energy: -49.718104686009 gnorm: 0.121328565022 xtb: 6.4.1 (79825abcba525fcdf90b791dcacef51065a7a4e7)
C         3.62748459194744   -1.46442799220832   -2.69702716413135
C         3.05534238836085   -0.11602935008246   -3.10928780015226
N         4.10104450808492    0.94796991293296   -3.12645278378279
C         3.82031406185965    1.62899586486111   -2.05303651577612
C         4.28421229080384    3.01423703537089   -1.73200651510713
C         3.46633916262158    3.92963005652861   -2.65095228397454
N         3.96885695034743    4.98397681421236   -3.21262263158966
N         2.30283933127352    3.45396877572053   -3.23235085592923
C         1.05208847543089    2.85353059154021   -2.72935659943807
C        -0.15571236165118    3.74072362766930   -3.12777528572050
O         0.24464009591285    5.09743073660816   -2.93410112123124
C         0.90158412428430    1.36221875663565   -3.10299941762187
C         1.84049011469312    0.43709867293950   -2.27682750831395
C         1.07169525904557   -0.59785080522608   -1.39811789409943
N         0.00058437707950    0.15740979889247   -0.72968325164914
N         2.73144164680453    1.15474639469250   -1.34369083675241
H         4.58276026195269   -1.52566262249532   -3.23179477614312
H         3.02329866857275   -2.30855062003723   -3.04567947740510
H         3.88426544139830   -1.40371454338548   -1.63743991583570
H         2.78241461481933   -0.21042065207826   -4.16915341813463
H         5.35475894459390    2.98364242378702   -1.95032042886559
H         4.14171943430251    3.38925232681623   -0.71660841037831
H         4.94244519646144    5.22777886189086   -2.99152526410756
H         2.15237803669730    3.98526447134331   -4.09315970549433
H         1.21969757036403    2.94441264653610   -1.64759529228218
H        -1.05505273088544    3.60342734786774   -2.51870697134945
H        -0.39789782508723    3.56656979385858   -4.18368056795499
H         0.84236546168173    5.41532576639476   -3.63733251686261
H         0.94332335162534    1.27602217855468   -4.19702783188214
H        -0.14046381836989    1.10693177678256   -2.86764965750896
H         1.69469865439470   -1.14688437544559   -0.69251725739380
H         0.68264723152838   -1.36729319679986   -2.07655782737925
H         0.35503891634554    0.47036647461278    0.17077032165678
H        -0.72070095221002   -0.53341815891475   -0.51637761771912
H         2.41667792497031    1.88027465364823   -0.70276492322046
