35
 energy: -49.720975371277 gnorm: 0.113215886573 xtb: 6.4.1 (79825abcba525fcdf90b791dcacef51065a7a4e7)
C         3.47414183256387   -1.43684389666100   -2.20974429604374
C         2.89135534238326   -0.24174525568007   -2.94973322164829
N         3.95824735806363    0.76389386873963   -3.22598201905845
C         3.87553180706225    1.60601938161388   -2.23663315275626
C         4.58102614355622    2.92384191972532   -2.18394138865505
C         3.86601352673149    3.81564925934549   -3.20607581330667
N         4.40029560446643    4.73759639803397   -3.94377556878914
N         2.49903543635505    3.76173943222691   -3.42165513711702
C         1.35791221678559    3.17587738084128   -2.69192203218698
C         0.01273637955873    3.88096417575931   -3.00494981750219
O        -0.99824461387756    3.60117875204442   -2.03640271042366
C         1.27416578417472    1.69448635340333   -3.12173444481807
C         1.87698004992735    0.64813956968868   -2.14105861130201
C         0.74852068064866   -0.18586238109300   -1.45891728908797
N        -0.11359824458637    0.75838885963324   -0.73115184670508
N         2.92217873234932    1.25909375656085   -1.29616118705874
H         3.78239720831288   -1.15872779363147   -1.19490059282416
H         4.32440490395877   -1.83582797131937   -2.77277760147840
H         2.69401209364786   -2.19938715900677   -2.25742067361073
H         2.36048969511233   -0.57649752671082   -3.85130796378769
H         5.59105662175583    2.87880538090428   -2.59924522990207
H         4.58291886464850    3.35372157913376   -1.18036085668163
H         5.33748836119242    4.97133122503196   -3.59272666630414
H         2.27930754007399    4.15318748387027   -4.34056408976545
H         1.47677042522948    3.42329866170354   -1.62833596923874
H        -0.44387598213409    3.51984733226097   -3.93216465999419
H         0.11801368738913    4.97154992059391   -3.06376091199246
H        -1.07867512945342    2.62942861670318   -1.99057840271713
H         1.87200419548273    1.60586578189362   -4.03868910601398
H         0.21845813480417    1.43254829435824   -3.27436042838233
H         1.33467101539430   -0.78261907720983   -0.76052441628356
H         0.29892365382476   -0.88183666417302   -2.17805776465111
H         0.42529642354212    0.95454653525666    0.10879532156262
H        -0.93441313393689    0.20919783855814   -0.47106103894469
H         2.58571431843287    1.96088216948793   -0.64000708172469
