35
 energy: -49.730063587810 gnorm: 0.096807406939 xtb: 6.4.1 (79825abcba525fcdf90b791dcacef51065a7a4e7)
C         3.64348818159535   -1.34861790636200   -2.79731131561516
C         3.09356767247688    0.01549040565565   -3.18754252751102
N         4.04538656394995    1.14973334776449   -3.00474275844545
C         3.68583713121366    1.72954275411749   -1.89597150611289
C         4.01243786412187    3.13141331100080   -1.48946706504975
C         3.58092878231429    3.85231099687804   -2.77220969390445
N         4.35213099266832    4.55205733008864   -3.54373223693344
N         2.31830035297127    3.51643425761668   -3.23152017135722
C         1.11836589756938    2.89707442645105   -2.63615668523104
C        -0.00051544163099    3.85640039715194   -3.11826670038039
O         0.26491993804532    5.14903615410669   -2.57321365759752
C         0.90390224831749    1.42096834933113   -3.03788760797409
C         1.85863163442427    0.43370932048507   -2.30729667815840
C         0.98292049218867   -0.71421174290281   -1.71593908192410
N        -0.05970319127587   -0.09683659343142   -0.88150168937760
N         2.69032238050814    1.02661552131475   -1.24131839780194
H         4.58094615763489   -1.53280062378249   -3.33538840393382
H         3.01380740882223   -2.23809474003799   -2.90443351062318
H         3.85835563408518   -1.20690273348013   -1.73613439331706
H         2.88660970791208    0.12596243703161   -4.26070549538908
H         5.06784060824455    3.27206647322272   -1.24246732221051
H         3.45891518569975    3.47064934305533   -0.61168260027718
H         5.31059055345828    4.62923931172452   -3.18097091262490
H         2.17090392819000    3.94979560654724   -4.14605712269549
H         1.10646349943015    2.99374387473770   -1.54204826412732
H        -0.96680318423444    3.53209980032419   -2.71858593189030
H        -0.02728558176305    3.96127193867381   -4.21014794232675
H         0.91538963433465    5.65203514915601   -3.09928251776135
H         1.08568259776510    1.31268682940866   -4.11552448055958
H        -0.14644000608122    1.16211706618233   -2.84761929090045
H         1.63022154430168   -1.46022090877811   -1.25559678105570
H         0.52082188936988   -1.27281136028359   -2.53941468071388
H         0.28568240702582    0.44627416137373   -0.09401452481542
H        -0.85576708150571   -0.68486585704068   -0.62951170446637
H         2.13411926176129    1.50165816380861   -0.53334518508876
