35
 energy: -49.723866277671 gnorm: 0.093889918306 xtb: 6.4.1 (79825abcba525fcdf90b791dcacef51065a7a4e7)
C         3.46842018678453   -1.63701716778392   -2.35271342201390
C         3.01030133878105   -0.32791854199096   -2.97871053859993
N         4.13136960288804    0.62766285243152   -3.21525266531072
C         3.96173324393941    1.55267196373813   -2.31502486438018
C         4.61075081405179    2.89988167070608   -2.28408682684377
C         3.65271409823020    3.87187249357219   -2.98317315069027
N         4.03870051494057    5.00014042482187   -3.49078598273053
N         2.27269713201902    3.75702802053108   -2.96384032918975
C         1.12094706024128    2.88826310600332   -2.65299267414120
C        -0.14231086812308    3.54280730986044   -3.26974476641483
O        -0.53898131396337    4.75536849581042   -2.62881271674679
C         1.18586858309575    1.41743369696059   -3.12066522576358
C         1.99739756194405    0.52968902850101   -2.13411472816845
C         0.93993688573636   -0.27838286647050   -1.31980928387090
N        -0.05172450919831    0.62604686530553   -0.71721776777286
N         2.98513598540092    1.31239647038320   -1.36515513258936
H         3.82800853315538   -1.59123003549590   -1.31788133517754
H         4.16261804016054   -2.09559366109696   -3.06470993168180
H         2.58129860514998   -2.27139379580915   -2.40683615625968
H         2.61183704683467   -0.53774644941865   -3.98066507966235
H         5.64441161190354    3.07222134710781   -2.59474987217572
H         4.64181229288270    3.22836028522431   -1.24336063534198
H         5.05273734598371    5.12156634089286   -3.60560156904105
H         1.97581223532064    4.63782317443383   -3.39041372493891
H         0.92240218402509    2.88184935704911   -1.57266925420500
H        -0.92403334580062    2.79511568514404   -3.10094072414621
H        -0.07096918828307    3.81637514884982   -4.32992887045600
H         0.15298471760266    5.10970233918224   -2.03847569463172
H         1.58756659336354    1.29244574709662   -4.13510445306807
H         0.18371211370335    0.96951167194020   -3.15904701710619
H         1.43485342447467   -0.96031052357496   -0.62881314395981
H         0.38347432899629   -0.83710209831918   -2.08260871490072
H        -0.78955915134581    0.13317316916218   -0.22015428868370
H         0.36299175352826    1.23634616921090   -0.01114392606688
H         2.71971960957489    2.13006602594879   -0.81997245885383
