35
 energy: -49.719424946770 gnorm: 0.111418728376 xtb: 6.4.1 (79825abcba525fcdf90b791dcacef51065a7a4e7)
C         3.50722845203207   -1.41776343578512   -2.51546485604654
C         2.89707615406117   -0.11130287020604   -3.00163293731005
N         3.94520623890749    0.94116747427291   -3.14167400516908
C         3.82828915699914    1.72835860696021   -2.11138814908665
C         4.51491013923572    3.05548861699618   -2.04481101525833
C         3.78508097641173    3.79220374269341   -3.17437836448793
N         4.25837086623690    4.74744391714828   -3.91137069234607
N         2.51970379751709    3.39810968553759   -3.57627423923084
C         1.28938264910105    2.92548406410889   -2.91231502425468
C         0.16398141171271    3.92812351045583   -3.27675707930568
O        -0.70849698882808    3.94002295707177   -2.14667486957396
C         0.88238557515847    1.44518642058240   -3.08361532550087
C         1.79440945684787    0.60866725686436   -2.14106568675163
C         1.04333208584143   -0.31327564725258   -1.13101587548004
N        -0.08938307009521    0.33306406341867   -0.45005822414733
N         2.71414241540484    1.44302331118242   -1.34263083788573
H         3.52702603550670   -1.48160887650053   -1.42102002193711
H         4.53594172515244   -1.43875747848387   -2.89023189527449
H         2.89186269301807   -2.23794652483911   -2.89092770285514
H         2.45994954991756   -0.34901159572493   -3.98098441579109
H         5.58763756302778    2.96258415452819   -2.23267205782641
H         4.28377931665831    3.44935565172541   -1.05313500934573
H         5.24807208944216    4.98603347394200   -3.77078593691873
H         2.47398060569381    3.73248255724570   -4.54168076817274
H         1.43566978939223    3.18163895672314   -1.85422966165282
H        -0.39667892383342    3.58388317698864   -4.15184917226003
H         0.47723227383708    4.93546881306233   -3.57849978213347
H        -0.33961263842257    4.65533553164398   -1.59429862225578
H         1.01066167285308    1.09556634263247   -4.11675677137955
H        -0.15932306769077    1.41953546082598   -2.73632581670444
H         1.81620883040088   -0.62198620178803   -0.42759374471536
H         0.65899726619559   -1.15598760285089   -1.71906690884233
H        -0.57602134465029   -0.38598365758508    0.07961158157176
H         0.27333315518932    1.03910303526768    0.19254662724259
H         2.32884755607235    2.08635799844081   -0.65421102945962
