35
 energy: -49.725034069141 gnorm: 0.102105165984 xtb: 6.4.1 (79825abcba525fcdf90b791dcacef51065a7a4e7)
C         3.77125721550665   -1.23650542803850   -2.68262458290180
C         3.02138316862736    0.01520181306108   -3.11436795903460
N         4.00166680089666    1.12822592003161   -2.95280265633624
C         3.64937503319906    1.65943949857621   -1.81766783154674
C         4.17934324959005    3.04784740635469   -1.64851673127383
C         3.64114108231376    3.84337115536409   -2.84384202867860
N         4.25192352360223    4.78285390385685   -3.49496549521483
N         2.40528451130929    3.45409984019512   -3.33285756946689
C         1.17035692695638    2.97876110829791   -2.67947109264822
C         0.01426405376120    3.91771797149979   -3.11125931852688
O         0.16666889565584    5.31568669317021   -2.86447569731538
C         0.89214762080037    1.47977327268772   -2.92828136601759
C         1.81566577000626    0.45746345546995   -2.20582131291049
C         0.89026028620497   -0.71831160549785   -1.76369661008729
N        -0.10190313695642   -0.28587161258711   -0.76714788205772
N         2.65627080954539    0.99695841991051   -1.11867584302345
H         4.75472860996985   -1.25387102642129   -3.16714510358181
H         3.30984190713476   -2.12823468390347   -3.11972517678063
H         3.77939402772671   -1.28462288993752   -1.59176887795657
H         2.68127388895880   -0.14929352409247   -4.14586268926863
H         5.26854945211397    3.01803404586579   -1.73458735110651
H         3.90917508503051    3.61745796449257   -0.75715431115236
H         5.24263764448767    4.82645190028079   -3.22518352720285
H         2.32909824146859    3.79410695953092   -4.29436492545028
H         1.30939369643705    2.99818591803487   -1.59004402749932
H        -0.86622738731592    3.64791268781229   -2.51917189487950
H        -0.15234392943052    3.74756813969124   -4.18233827776837
H         1.09049329356713    5.59974513233996   -2.72763074365705
H         0.97763139301713    1.25818654425167   -4.00050431286709
H        -0.15006903461683    1.30332939916066   -2.62982389735699
H         1.52230443283738   -1.45804702889066   -1.27302863565388
H         0.36489793924864   -1.13139855881332   -2.63377377942471
H        -0.09434285089207   -1.03187637723215   -0.07590532435033
H        -1.05301568821328   -0.16637654506448   -1.11942749663506
H         2.16869289023020    1.47877649630413   -0.36609854485622
