35
 energy: -49.727720272568 gnorm: 0.114309062818 xtb: 6.4.1 (79825abcba525fcdf90b791dcacef51065a7a4e7)
C         3.56669476509632   -1.34776204814298   -2.50888820260277
C         3.02885190429631    0.01257866277406   -2.92803329865024
N         4.12999670167918    1.01912145227752   -2.91274517807773
C         3.81990385313627    1.80935630266669   -1.92572961652533
C         4.21529871745926    3.25180645348192   -1.91326393317508
C         3.75578975564165    3.65214704629890   -3.32035351765315
N         4.47182344439964    4.22289455306167   -4.23751644606565
N         2.44878248796744    3.41517613439122   -3.71225480122474
C         1.29832215198571    3.07648403916721   -2.85223408798338
C         0.10673392030939    3.97880959066758   -3.26522064653375
O        -0.60722309574223    4.25382816702744   -2.05978457636251
C         0.86719947416077    1.59325560665310   -2.87316601611998
C         1.82493128001022    0.62488862310045   -2.12152329017202
C         1.07800916192245   -0.47004628264498   -1.29840640215216
N        -0.03299446658588    0.07602470495408   -0.50343510263284
N         2.70101852292055    1.40128940753261   -1.22195124167839
H         3.96720189530690   -1.39108814481013   -1.48908696872536
H         4.37674107896762   -1.50814169754440   -3.22808595962431
H         2.82182780371601   -2.14333261903597   -2.57662543309999
H         2.75121181329250    0.00667862121113   -3.99085763745809
H         5.27231437941766    3.52870501599780   -1.88657661171971
H         3.73904621792799    3.85853437993415   -1.14058109513023
H         5.46632942264713    4.30685123274893   -3.99234977160599
H         2.27335725222303    3.40797376384988   -4.71976643582568
H         1.55116899038095    3.46554864824414   -1.85661514433931
H        -0.49663096401855    3.48334833280453   -4.03274689820429
H         0.44895039125116    4.95421846018862   -3.63316731087362
H        -1.47459205896626    4.64038515756601   -2.28586428606871
H         0.96636970207385    1.23340440207036   -3.90599832311307
H        -0.15745605784719    1.52488783653206   -2.48351010331372
H         1.78513696615691   -1.00245908390188   -0.66283561596516
H         0.73879852753215   -1.11435484158363   -2.11906670544801
H        -0.51475916220090   -0.69746056518759   -0.05174953685959
H         0.41004021331335    0.65775871050993    0.20951714231650
H         2.34316428062064    1.91721617337615   -0.42069386921881
