35
 energy: -49.725264505446 gnorm: 0.108773614488 xtb: 6.4.1 (79825abcba525fcdf90b791dcacef51065a7a4e7)
C         3.60106022659291   -1.26341984485958   -2.47427162196192
C         2.95665767718049   -0.03640473092183   -3.10249427768328
N         3.98514201106438    1.04381073447293   -3.13765856650204
C         3.77334995537683    1.75441837224744   -2.06760747334716
C         4.36020069926223    3.11951880139428   -1.89654615205338
C         3.86472259222271    3.69639260126926   -3.22810173147137
N         4.65673495365219    4.13463171788688   -4.15562946571307
N         2.50062684676306    3.89314398520122   -3.36426894192037
C         1.36770160321457    3.13995774955428   -2.79234429282986
C         0.07337255188759    3.96804355859715   -3.00119350663768
O        -0.82786931382061    3.74700197900233   -1.91613605766999
C         1.11886883715676    1.64491104626834   -3.09098970218214
C         1.81525947396842    0.57126365278449   -2.20652771751773
C         0.79079623621773   -0.32660295719785   -1.44586541593719
N        -0.25155362590698    0.44507245225711   -0.75122465574096
N         2.73788281341051    1.26900548056241   -1.28920582877621
H         3.93116338932668   -1.08228631439622   -1.44446570520539
H         4.47331309299637   -1.52295594992760   -3.08333485968893
H         2.94423761167100   -2.13443091818964   -2.42661212933892
H         2.62059929073150   -0.21301440770022   -4.13331346466078
H         5.44677185613965    3.07240682817482   -2.00522333142330
H         4.08858772237893    3.73156505647100   -1.03422384299679
H         5.60550814136012    3.98638455009223   -3.78950136391667
H         2.33555119354160    4.03464525463365   -4.36358521466257
H         1.47212482048513    3.14370312229321   -1.69889029774994
H        -0.37768096019954    3.73069830823819   -3.97013392894441
H         0.25767545162603    5.04684686161545   -2.92286602818435
H        -0.84508175612089    2.77649556165320   -1.81275189067158
H         1.49835907412921    1.55253174214666   -4.11740259226257
H         0.03892143433915    1.48289409136185   -2.97313822112734
H         1.41120427857160   -0.90425134159998   -0.76113221570972
H         0.23146533729969   -0.97923782787779   -2.12769924200585
H         0.22835250156130    1.07302221030655   -0.11109517818811
H        -0.73370548184570   -0.17345986500385   -0.09705155604406
H         2.35663940971564    1.99428845537018   -0.68515983557922
