35
 energy: -49.718898098338 gnorm: 0.111517857275 xtb: 6.4.1 (79825abcba525fcdf90b791dcacef51065a7a4e7)
C         3.34947131723555   -1.57143974849969   -2.75211359897477
C         2.97202269679563   -0.18221894364309   -3.24514763940869
N         4.15286964054815    0.72122036733800   -3.12153564376533
C         3.79065674978734    1.57503926397020   -2.20795830942241
C         4.54801564603519    2.85138915143100   -2.02223430472565
C         3.64207281335980    4.00374913078441   -2.47240788621503
N         3.99912006981851    5.24339606626920   -2.59665582222749
N         2.36539830740103    3.80723671427975   -2.97190255991830
C         1.19729694765538    3.02432405321343   -2.52413702752685
C         0.02106435620855    3.76643526691056   -3.20997935236031
O        -0.10976214833476    5.15272690352015   -2.89450211491039
C         1.11651122777872    1.58990526728234   -3.09175307606925
C         1.87988016596899    0.47396492032748   -2.32240483015581
C         1.01290638402268   -0.65132650198002   -1.67713569209365
N        -0.06439509431808   -0.11563427610445   -0.83040235496474
N         2.78924938244528    1.13129975135413   -1.36296983288351
H         3.86878713287446   -1.55865897751243   -1.78649181869615
H         4.07640332680913   -1.85710022525355   -3.51964863713794
H         2.55207704935949   -2.31724494187005   -2.73524156436487
H         2.60636898846341   -0.24250497421683   -4.27925469080701
H         5.35824983840214    2.79013136328760   -2.75328504446299
H         4.91544541720333    3.09585137620516   -1.02363148961378
H         4.99298286443199    5.39547003043670   -2.38379948271961
H         2.09182192208323    4.71129468596928   -3.36400045521781
H         1.19055861536135    3.07444717213188   -1.42686670547175
H        -0.98735570141772    3.38849136918613   -3.01281192571534
H         0.19829566776921    3.83391755620709   -4.29069880736807
H        -0.01533454118016    5.27880639538584   -1.93114618373456
H         1.53760224150684    1.60628484509740   -4.10589522090361
H         0.04659615782866    1.35313078601712   -3.16688275725826
H         1.78538089078416   -1.17511903138057   -1.11466978631340
H         0.61401756919148   -1.24622856690233   -2.50819523363116
H        -0.24513656268135   -0.60486794479202    0.04274109040272
H        -0.91113311456665   -0.00966142877213   -1.39147237464545
H         2.36656230541396    1.63871758151550   -0.58829811786241
