35
 energy: -49.713954744159 gnorm: 0.119323516790 xtb: 6.4.1 (79825abcba525fcdf90b791dcacef51065a7a4e7)
C         3.63017834038850   -1.28052481643098   -2.69302667957306
C         3.05863010226554    0.07356768587784   -3.08704513115541
N         4.08613551871233    1.11635792153791   -2.79946360655158
C         3.62991026458505    1.82011076770660   -1.80376341688492
C         4.05140996856199    3.23446721665325   -1.56068158705268
C         3.69509541090864    3.74427201806742   -2.96227395612041
N         4.38672624744148    4.38267656052942   -3.85318989344132
N         2.36921046761339    3.58949635793622   -3.33116882332258
C         1.22985380781432    2.94305405077707   -2.65154711798007
C         0.01937869682544    3.84124036378347   -3.01574920792606
O         0.22519448769616    5.17931981134440   -2.56228564808608
C         0.85897113924521    1.46700300076649   -2.91610490995856
C         1.83285076490240    0.49210605479054   -2.19424200167964
C         1.08148798252317   -0.75896131338503   -1.64235349076227
N        -0.13819892650060   -0.27993494678101   -0.97347416399188
N         2.56798870602485    1.22630751312485   -1.14539628552314
H         4.61904804969576   -1.35526530393816   -3.16081748538755
H         2.93810732125319   -2.07242188867787   -2.99811488001289
H         3.63231173238760   -1.43802360451693   -1.61250030591330
H         3.02752525937605    0.09255642641024   -4.18494599895381
H         5.13669026487652    3.35137219516364   -1.50440510570537
H         3.58802407471769    3.68254403963832   -0.67950359466497
H         5.35208822113848    4.68956603735522   -3.67971753540054
H         2.22539939926827    3.85184340258012   -4.30912484694421
H         1.28403943150895    3.15146477340950   -1.57442653056806
H        -0.85054539342344    3.34844756129252   -2.56963832368837
H        -0.25823789836428    3.85650784387946   -4.07717054253839
H         1.10929883102732    5.46315814432060   -2.86338790682154
H         1.06702254413903    1.34174885051979   -3.98713068679841
H        -0.21635432334603    1.33009050680429   -2.73903160913257
H         1.56801584652163   -1.50337715778009   -1.01260828587033
H         0.69081497990587   -1.23840189111413   -2.54854996162270
H        -0.20783910889577   -0.75798212767868   -0.07847825545883
H        -0.90204332735537   -0.58744920356789   -1.57760312338726
H         2.02155706863939    1.77486094313580   -0.48452180976769
