35
 energy: -49.703746067718 gnorm: 0.112302389247 xtb: 6.4.1 (79825abcba525fcdf90b791dcacef51065a7a4e7)
C         3.33921798127655   -1.37710524917935   -3.46865320703551
C         2.88806757234489    0.05695012487193   -3.23321129293005
N         3.98343514968773    1.01493391357653   -2.90409291229461
C         3.76008913686067    1.64747709901207   -1.78837158180651
C         4.40014876895373    2.98322951259255   -1.58041944972297
C         3.54313620292054    3.97597134684461   -2.37497299241585
N         3.82174323929834    5.22243029139217   -2.59488899820881
N         2.49691975033308    3.41130461358310   -3.08531973951522
C         1.18948092705725    2.92525654075087   -2.60337783094539
C         0.16728417485926    3.68783019667332   -3.48554962852877
O         0.60871543007848    4.92819106791493   -4.03789853996863
C         0.77844261117860    1.43859476670700   -2.68796997039252
C         1.84542117305172    0.45645683984333   -2.12501923198096
C         1.04743827027524   -0.70728749298801   -1.45927232015688
N         0.02290875645630   -0.21071641921689   -0.52746847203308
N         2.60777948778549    1.24533434924263   -1.13707237974656
H         4.39417828373012   -1.34162896275361   -3.76543236625142
H         2.68452362317054   -1.84229870181090   -4.21304048538979
H         3.37985034525623   -1.93606081910703   -2.53149508838700
H         2.39256547995763    0.37197188605516   -4.16162573787179
H         5.37782242687564    2.90248239863049   -2.06239587338548
H         4.57977154488613    3.27726976551340   -0.54444165730600
H         4.76247912201025    5.47071381050459   -2.26387711858208
H         2.33719140347326    4.07369496134188   -3.84796743297780
H         1.13872100577503    3.26756113732127   -1.56087560124173
H        -0.82403512106387    3.77494443289565   -3.02912355420557
H         0.10808652855959    3.07218318319320   -4.39185737707546
H         0.49643397279903    5.69212252953048   -3.44068094421688
H         0.57008064232534    1.04324644109832   -3.69114254073563
H        -0.13990732836423    1.42762789362587   -2.08552661752884
H         1.54909023519669   -1.61594872465635   -1.12742384145104
H         0.54976372740823   -1.03470187684685   -2.38057606372000
H         0.38275340172406    0.63615615095686   -0.09420732787858
H        -0.14541459988625   -0.89293750703788    0.21363659388132
H         2.37309373143615    1.44864270359719   -0.16761801617109
