35
 energy: -49.725596396139 gnorm: 0.098551808189 xtb: 6.4.1 (79825abcba525fcdf90b791dcacef51065a7a4e7)
C         3.55250403500815   -1.50116390873291   -2.99007191808310
C         3.00219136159271   -0.09858539640271   -3.20317728880791
N         4.09676738426675    0.90893422813703   -3.09052952142410
C         3.85324047259122    1.61893590148370   -2.02684692220599
C         4.45003481073921    2.97558049679673   -1.82558372657716
C         3.55636260668684    3.93615576004445   -2.61928855882518
N         3.97765501292367    5.14821776008007   -2.80112154904066
N         2.45382548348905    3.50393691526172   -3.33734748657130
C         1.24068305969319    2.92264021306382   -2.73048127370533
C        -0.02049741588366    3.66676493729319   -3.24071068430472
O        -0.04723553843580    5.02029223541036   -2.78717470257009
C         1.00189893794855    1.43345752138681   -3.06453007785177
C         1.88155640061158    0.44745603725540   -2.24358215508946
C         1.03478465621616   -0.58245254421317   -1.43329674349185
N         0.02404342624568    0.16445141549639   -0.66841857786432
N         2.75529955446528    1.18218482580864   -1.30747135954917
H         4.28629193362078   -1.57954744011169   -2.17909163667515
H         4.02247868368382   -1.82531261077036   -3.92452016470707
H         2.69493469122349   -2.14578452814472   -2.78663460333697
H         2.75446914699981    0.00106568231633   -4.26873713006919
H         5.41897880457255    3.06434420603447   -2.32351513091697
H         4.53442697709953    3.28477124969168   -0.78191086975571
H         4.85626478502633    5.49594879160453   -2.39698597987207
H         2.17185270707587    4.23075126606088   -3.99926731976796
H         1.16290164738573    3.13976859430639   -1.65653285369584
H        -0.98589540916728    3.20603105875281   -3.00756137111342
H         0.02146335829504    3.63913113132314   -4.33679234278297
H        -0.20833860925090    5.06880640665016   -1.82563456490124
H         1.18332368831813    1.26761936022421   -4.13488187527178
H        -0.07227002961641    1.23741218638402   -2.94556737913083
H         1.70240215792145   -1.00593104745954   -0.68336595667078
H         0.68652003489844   -1.39088544327575   -2.08814687522348
H        -0.55112524099988   -0.38042767884777   -0.03070052726994
H        -0.62820941264292    0.61125429257931   -1.31489248068177
H         2.44415034177285    1.52819863148590   -0.40209073675692
