35
 energy: -49.721525835590 gnorm: 0.107957609382 xtb: 6.4.1 (79825abcba525fcdf90b791dcacef51065a7a4e7)
C         3.55917504367536   -1.53246276589678   -2.51829972532958
C         2.91129124952409   -0.31824444733949   -3.16745681822135
N         3.94558714550205    0.73781513572193   -3.36957603670855
C         3.85239175061429    1.53123132724765   -2.34164909507516
C         4.57082830648527    2.84199869572529   -2.28786470555764
C         3.59215202210121    3.98136375023182   -2.59667240157804
N         3.89146739083278    5.24206415607912   -2.57041185178823
N         2.33270184596518    3.77160007890134   -3.13313703302669
C         1.18415506577577    2.93465492357689   -2.73530531667737
C        -0.03969901535873    3.63035206669771   -3.38555028871121
O        -0.15249018594010    5.01628519458728   -3.06164678719428
C         1.11966480152963    1.43221608496622   -3.08856171526175
C         1.92164829101940    0.43497631240895   -2.20409180016570
C         1.02022723991481   -0.43246822963062   -1.27174173934543
N        -0.16201962285496    0.24148895812764   -0.71265673616585
N         2.91044924557353    1.17338976106539   -1.39379850835061
H         4.38553796310224   -1.75387116360244   -3.20414251731839
H         2.90457774511009   -2.37043600280443   -2.25667917083183
H         4.06795848074011   -1.33232278772743   -1.57308489543266
H         2.52366534095459   -0.63239219584634   -4.14611496954434
H         5.29616724482469    2.88331287816961   -3.10446969540634
H         5.06176199208259    3.05628228456641   -1.33652845541466
H         4.86602559832401    5.34681911348077   -2.26144539840308
H         1.93284999717125    4.66182124779681   -3.43896439849224
H         1.09733050039426    3.02229474318723   -1.64381979067385
H        -0.89316412011275    3.09556115199507   -2.95633752577681
H        -0.06079480878915    3.44334405540616   -4.46652313937089
H         0.24484390381223    4.97141622959585   -2.17115273307766
H         1.54138790898021    1.28081445436827   -4.09120690901190
H         0.03418557433874    1.27128688998994   -3.13611712401805
H         1.65899115625119   -0.91942000760187   -0.53533017664081
H         0.66243906160484   -1.16826300143418   -2.00268249821025
H        -0.09557390250854    0.57787283486087    0.24485430292721
H        -0.90555230836681   -0.45848940966868   -0.69907302511374
H         2.43760073570903    1.91676603616868   -0.88383821681050
