35
 energy: -49.723749526686 gnorm: 0.116042104701 xtb: 6.4.1 (79825abcba525fcdf90b791dcacef51065a7a4e7)
C         3.66421733650832   -1.34232959779781   -2.68906033179165
C         3.06160524031679    0.00080497882083   -3.07420004164563
N         3.97118299612443    1.17640809128939   -2.94571805710098
C         3.65555654780665    1.78823753770442   -1.84078679165771
C         4.05779837179724    3.20594169921200   -1.58491303883098
C         3.66440087795000    3.85249058150388   -2.91853035243457
N         4.45787576414182    4.58396698064934   -3.63615467931696
N         2.41843984904139    3.50049825900197   -3.41015250026521
C         1.22430278976997    2.96464402479454   -2.72838724034162
C        -0.01763276945262    3.80489217921616   -3.12362251322845
O         0.17096503984191    5.08873726177524   -2.52812387571139
C         0.92861915131923    1.48193407626029   -3.04526878565878
C         1.82293282044866    0.49592482267583   -2.24032128743816
C         0.98288655159604   -0.67672473995831   -1.64575270769456
N        -0.28050428752106   -0.27987506053493   -1.00477230723243
N         2.60971274585753    1.16405101120079   -1.18479219100788
H         4.58240191925259   -1.47488422707050   -3.27356355768880
H         2.91777555980311   -2.11213298263269   -2.91125281359752
H         4.05975924942992   -1.52778617397936   -1.68831055770536
H         2.76768064713349   -0.03359922844665   -4.13209375106936
H         5.14938125076352    3.25725632682667   -1.56298651302072
H         3.53017025849367    3.45688478077142   -0.66262775957181
H         5.34544536341021    4.74417797742354   -3.14345780942279
H         2.24855492101495    3.97533357298024   -4.29985813747984
H         1.27716050243425    3.06865445343474   -1.63616575733623
H        -0.93663433439280    3.34990834317691   -2.74014706257389
H        -0.04007349012916    4.00009019531262   -4.20311937455373
H         1.10525269629093    5.37147453893443   -2.53390893619826
H         1.17197777774951    1.36358793739144   -4.10961881027617
H        -0.13124809052453    1.23118540237969   -2.90303169930859
H         1.57563420515944   -1.10171952149201   -0.83613982982024
H         0.83720564302025   -1.50641867792117   -2.34865080270780
H        -0.14060155918424    0.33631017742877   -0.20781590170639
H        -0.78430697032759   -1.09468235467377   -0.65084150703452
H         1.96885322237908    1.65578037632213   -0.56531274077115
