35
 energy: -49.725164798654 gnorm: 0.104322530335 xtb: 6.4.1 (79825abcba525fcdf90b791dcacef51065a7a4e7)
C         3.40606270369176   -1.55737304721759   -2.93239800221507
C         3.10735481684640   -0.08189341180085   -3.15424898601384
N         4.16738235051360    0.91213442207800   -2.81641431690933
C         3.76964818672012    1.65872340330636   -1.82684834473790
C         4.20316138058843    3.07087890244780   -1.59224645972978
C         3.58715545893923    3.90322011022628   -2.72320489857512
N         4.07474744355824    5.06216015810873   -3.03746087547721
N         2.46694170351552    3.42486232968174   -3.38222296198673
C         1.19436507256870    2.94911106909344   -2.80592752530792
C         0.05862222318255    3.76251698107756   -3.47904775001892
O         0.04992159903243    5.01080292109873   -2.78611739540336
C         0.98656493691648    1.43045870797874   -2.99772335191926
C         1.91321948710140    0.42061337832161   -2.26187321349088
C         0.95412126861696   -0.63145927215983   -1.62346089958390
N         0.03713747480976    0.05958360847212   -0.70362263718845
N         2.62762996086673    1.17567130049932   -1.21351157269496
H         3.96919902587077   -1.95653645551951   -3.78435089415856
H         2.47045296495277   -2.11895316577401   -2.84072323425752
H         3.88680569867689   -1.82594939692834   -1.98947670566157
H         2.79428127161929    0.02992687214122   -4.20124257969731
H         5.28744586739409    3.15367469776632   -1.70242420480613
H         3.94002530342775    3.49742345938151   -0.62230155068210
H         5.01523280237801    5.24173110858298   -2.66404538962202
H         2.29912663073397    4.05689483397857   -4.16852991001601
H         1.12359254774315    3.15261875931068   -1.72883154545067
H        -0.82492074151919    3.14302705380496   -3.29408381014545
H         0.20370345421211    3.83772231919399   -4.56404310575071
H         0.90275561802573    5.48571161124348   -2.78434738591060
H         1.11990259156557    1.20190529884235   -4.06358198017353
H        -0.02647500178056    1.30183510806194   -2.59321015204295
H         1.53033284553276   -1.39304812432612   -1.09866952158223
H         0.34537978972396   -0.96600191866612   -2.47269334110658
H         0.49872612612245    0.36477897608248    0.14971682704637
H        -0.76539188347534   -0.50983072426141   -0.43029311119793
H         2.12094796464147    1.81543095788482   -0.60504267084502
