35
 energy: -49.719493878420 gnorm: 0.119685272989 xtb: 6.4.1 (79825abcba525fcdf90b791dcacef51065a7a4e7)
C         3.54196064389625   -1.49898679716698   -2.38705379506466
C         2.94766721688342   -0.22319477743013   -2.96554706328435
N         3.85650764108831    0.91283533798311   -3.29619286710552
C         3.75564143310849    1.70866065922660   -2.27085561912738
C         4.43838893263037    3.03469097732482   -2.15836397598064
C         3.80032993469340    3.89575628098380   -3.25507243355165
N         4.28519223375978    4.90393399139141   -3.90938967816697
N         2.50593986341323    3.55205707635034   -3.60782594477628
C         1.38293388773127    3.02123379674595   -2.81096260639133
C         0.18022643660921    3.88971024677488   -3.26248809077830
O        -0.94206121854438    4.00407553778734   -2.38736698716602
C         0.98724457587314    1.53126927013847   -2.90948766560826
C         1.86137108244906    0.52462418021702   -2.10791410214500
C         0.95410180899829   -0.38581141287926   -1.22345606730515
N         0.21735425947312    0.42093794933766   -0.23813354473500
N         2.74737092202659    1.44050462676728   -1.36244497728246
H         3.82185699182569   -1.27208940039784   -1.35146059158135
H         4.47626892666256   -1.78371302181231   -2.88217103573995
H         2.85151058491270   -2.34187156741547   -2.45896791617268
H         2.50248158011204   -0.51887774664083   -3.92528439292605
H         5.51766387808753    3.04953421260907   -2.33044651537095
H         4.16863246269797    3.46022968539178   -1.18979685951377
H         5.28175487478730    5.00294804215266   -3.67861557105189
H         2.14312501071842    4.11020814443549   -4.38418820792975
H         1.63466487333874    3.14426644251789   -1.74886357154339
H        -0.22731659930128    3.48309820934800   -4.19372539449912
H         0.63612764880806    4.88259001395983   -3.36379546670546
H        -0.67476410064969    4.20846330793317   -1.47104545606411
H         0.96751832734805    1.12295608093628   -3.92878223162719
H        -0.03342982612793    1.45612430817352   -2.51073727957452
H         1.49886299430334   -1.18438674445719   -0.72050871768924
H         0.30905431674025   -0.95850459358685   -1.90140661904255
H        -0.40903514665637    1.13817607099061   -0.59534821544767
H        -0.20979904845031   -0.19114305347761    0.45892597879366
H         2.85927364800876    1.53516430116681   -0.35508665514140
