35
 energy: -49.726451621048 gnorm: 0.102991552785 xtb: 6.4.1 (79825abcba525fcdf90b791dcacef51065a7a4e7)
C         3.66200382252508   -1.27296264540660   -2.45627824717211
C         3.06795623387739   -0.09594302727581   -3.21602607639845
N         4.09200147106405    0.97558825909910   -3.04563217260339
C         3.76693810321698    1.55616856166182   -1.92666444962996
C         4.22923992002122    2.95128862964415   -1.64904601882466
C         3.69286751901098    3.81257399296339   -2.79874788658759
N         4.35924526605018    4.77039059020039   -3.36281604464190
N         2.43711754511085    3.54941948895414   -3.32014175864741
C         1.21496933359901    2.93764006398527   -2.76337728169212
C        -0.07084270355201    3.73952140250168   -3.09247538915022
O        -0.23532682719429    4.95351106942980   -2.35924962499798
C         1.08236943717896    1.48494020768692   -3.27166065251424
C         1.81929300955609    0.41981978127406   -2.41002623029906
C         0.83340131079388   -0.58902860400598   -1.74328857540028
N         0.06820782043709    0.11633497184444   -0.70336399137235
N         2.58621687798387    1.11445828443099   -1.35700101055807
H         4.66774361201571   -1.31504122738212   -2.89101329447236
H         3.11568086230430   -2.18768095240940   -2.70918876852651
H         3.60229307715018   -1.05251501964173   -1.38848372251351
H         2.84291978208018   -0.36470145582218   -4.25710337272676
H         5.31884889729772    3.03019856263213   -1.68358077025971
H         3.85276533300163    3.35842893424764   -0.70857928768611
H         5.31995191630879    4.92280731249934   -3.03113933549517
H         2.34520790908297    3.90015365446250   -4.27640728967301
H         1.39242148209039    2.99337009576354   -1.68080405118564
H        -0.91859219342514    3.11341323975804   -2.79593370789357
H        -0.18562912339408    3.93558229416008   -4.16592940898087
H         0.64940841525480    5.36314560066250   -2.40731586406747
H         1.49210408913782    1.58187364209706   -4.28595432634151
H        -0.00102330773602    1.31759667282100   -3.20324137993785
H         1.39555973552592   -1.35593098331017   -1.21104613198308
H         0.24012746254188   -1.01234523493090   -2.56335557900661
H        -0.52751820463433   -0.46626437867286   -0.12019588516861
H        -0.54241567180969    0.79229191543504   -1.16511744259450
H         2.02653393009174    1.50837340720423   -0.60344984012721
