35
 energy: -49.717695788564 gnorm: 0.131117682000 xtb: 6.4.1 (79825abcba525fcdf90b791dcacef51065a7a4e7)
C         3.62875172328353   -1.44080892807309   -2.73673692796868
C         2.93846243179771   -0.18679958379217   -3.25292072431737
N         3.99671126595482    0.86335815312910   -3.19670558053463
C         3.73252119811472    1.56266967120136   -2.13087471762496
C         4.40760068867850    2.87004367115698   -1.86218187829863
C         3.53209898312286    3.89445147887685   -2.59389740091902
N         3.97827481678765    5.08161619121784   -2.86075297526843
N         2.37963799148868    3.57728175480688   -3.29335925695934
C         1.21914912531812    2.87398363070901   -2.71323484034511
C         0.03190805078077    3.70049193228312   -3.27178163077156
O         0.06710867352382    5.11457944753705   -3.07796889606647
C         0.98826280091345    1.40738758345238   -3.13991868539929
C         1.85786219306397    0.43440901303474   -2.29312395343525
C         0.87241392339529   -0.51770018890678   -1.54701648689210
N         0.18945826235497    0.24996457461708   -0.49403768558241
N         2.72245788458826    1.10647598000523   -1.30299404481283
H         4.57672673297501   -1.51656303456185   -3.28252294931959
H         2.92411757793032   -2.27892273140969   -2.72266370308579
H         3.91660946802434   -1.38312396587485   -1.68499645113828
H         2.42311260712524   -0.34656817370327   -4.20979217785517
H         5.40133128219171    2.85674237022639   -2.31714310825732
H         4.44400207067741    3.19546704573402   -0.82066924474209
H         4.90991391969306    5.17195078140918   -2.43638778357636
H         2.11667127160977    4.23872796058186   -4.02769093939860
H         1.23981072475764    3.03054069739487   -1.62621005892606
H        -0.96384041198361    3.27565308899752   -3.10861131854681
H         0.03415710027905    3.67845897560788   -4.36879066825019
H        -0.00467180789318    5.40532719992769   -2.14889378257717
H         1.27842287906358    1.33389015246485   -4.19655271505113
H        -0.08583427418357    1.21004276402174   -3.02246498113412
H         1.51580778304955   -1.29883663576531   -1.14289576321826
H         0.15246902448954   -1.04862862307320   -2.18221334288299
H         0.69426137133352    0.28148882948199    0.38833218071880
H        -0.67945978796284   -0.26264228042798   -0.33525884072740
H         2.21815097822907    1.67974228162712   -0.62972309328502
