35
 energy: -49.724083227594 gnorm: 0.118353880498 xtb: 6.4.1 (79825abcba525fcdf90b791dcacef51065a7a4e7)
C         3.22133680858218   -1.44420163257402   -2.91731645502505
C         2.82681269815688   -0.01132609906872   -3.24397048118275
N         4.03279133591431    0.86700764822457   -3.24919864647018
C         3.88848070118876    1.53667769725122   -2.14215534401256
C         4.62714525549010    2.81431875888575   -1.89892105630492
C         3.91386626916474    3.79857234207321   -2.83369383792249
N         4.27489661104175    4.95911773362068   -3.28362304452093
N         2.67664367607623    3.44043762984709   -3.34264338014046
C         1.45311293547621    3.17109513078462   -2.56268560326842
C         0.31354264716298    4.07264861081121   -3.10417681392215
O        -0.96182519007708    3.66320494584419   -2.60997166568376
C         0.93506750931090    1.73602351278278   -2.80449116441951
C         1.83922373306295    0.62501592466442   -2.19776608875044
C         0.93083619305180   -0.38028908531786   -1.42414445657303
N         0.01828144188830    0.35564225079957   -0.53524015925419
N         2.86555673565220    1.16892037253489   -1.28652219436938
H         3.32483701470044   -1.51104626079860   -1.82777656170762
H         4.12174150363292   -1.76293915941099   -3.45287210066988
H         2.48101743137632   -2.12332442354003   -3.34517988646105
H         2.45220812049166   -0.01130256140563   -4.27663006032821
H         5.65795988418652    2.77201691156796   -2.25989042847784
H         4.49679210915039    3.10712433913675   -0.85525111548233
H         5.26680430060581    5.20476654563417   -3.17420020800012
H         2.33132050742756    3.95030019422666   -4.15915895069382
H         1.50505173967397    3.41161851920005   -1.49216669247262
H         0.40017589801706    3.98465250577631   -4.19200904616323
H         0.45514387882866    5.13232190707946   -2.85727414604291
H        -1.63795895873490    4.16262798682003   -3.10624479065589
H         0.80414246808866    1.59614832416847   -3.88586240699368
H        -0.07369444807537    1.64155159538057   -2.38034586732852
H         1.46319219970962   -1.19461792422750   -0.93331967771546
H         0.34491470874973   -0.92623404810234   -2.17402498832811
H         0.55976801155098    0.94862099608353    0.08891129513230
H        -0.46386402621874   -0.27320511751893    0.10902827618979
H         2.50926263190266    1.87238460691868   -0.64274734280643
