35
 energy: -49.721552621345 gnorm: 0.101551638770 xtb: 6.4.1 (79825abcba525fcdf90b791dcacef51065a7a4e7)
C         3.62578825655001   -1.57763476857651   -2.59037931992385
C         2.99016086961109   -0.30318790390331   -3.12633404811780
N         3.98397402655038    0.80946108065551   -3.11117934406964
C         3.76435996041732    1.54344979637908   -2.05863069895391
C         4.34374735064574    2.90696873576223   -1.85300657620479
C         3.59563835809464    3.96289196291296   -2.67561294705227
N         4.10320771889086    5.13484912294722   -2.89591855655221
N         2.33440938320007    3.76182533032522   -3.21122802987422
C         1.16298843267760    2.97628928545276   -2.77693197788605
C        -0.05470802813621    3.61112531795105   -3.49723079960675
O        -0.33867831435251    4.97439708554577   -3.18211665315201
C         1.16090808518542    1.48050281364065   -3.16279473228608
C         1.87262416782824    0.41356407650575   -2.28242340362649
C         0.81266613526117   -0.48514802708033   -1.57312648079829
N         0.31722763263372    0.31701695761986   -0.44371334992841
N         2.69717640695542    1.12383116538158   -1.28483067896057
H         4.53779267779492   -1.83735208247481   -3.14089956098605
H         2.96595926830366   -2.45047130840001   -2.63424460808820
H         3.92068588253740   -1.51638004088771   -1.54079325036129
H         2.56079628700438   -0.46518540368607   -4.12439080938937
H         5.33968057485739    2.76143788716176   -2.27915787744773
H         4.44615762319664    3.16632268922223   -0.79743959384948
H         5.09445751489372    5.31131382266349   -2.68980788501332
H         2.08933187425991    4.69317881000576   -3.55535492661840
H         1.01862597427988    3.12062813329999   -1.69763328566116
H        -0.99241536651760    3.10201971197832   -3.25198800442678
H         0.05423761629302    3.49339809680783   -4.58267563099575
H        -0.19739793976779    4.95553687170378   -2.21642963807240
H         1.70766034130322    1.48858104730549   -4.11519535332773
H         0.11478462701322    1.24979393817251   -3.40533134205947
H         1.32151324368002   -1.38609802017853   -1.23135593941707
H         0.10920397517850   -0.85757898012847   -2.32818733445103
H         1.11107033618559    0.39920878248048    0.18672682042532
H        -0.47124813676307    0.00460310457383    0.12523184253967
H         2.21497118076898    1.81915111993274   -0.71891392142892
