35
 energy: -49.721659454315 gnorm: 0.128630015205 xtb: 6.4.1 (79825abcba525fcdf90b791dcacef51065a7a4e7)
C         3.62285890481416   -1.39227874170150   -2.59156510715095
C         3.05675152249599   -0.06744973217621   -3.08129460804880
N         4.11767428158023    0.97536256096080   -2.96785987585481
C         3.73113317072550    1.65397368536012   -1.92627390656340
C         4.16492587758071    3.06069814008486   -1.66150016554697
C         3.58494120844272    3.81800612061692   -2.86209360027056
N         4.28152867097186    4.52591983463523   -3.69472130564519
N         2.25467968031556    3.71138442393197   -3.23229075755762
C         1.13106548460697    3.01807401473304   -2.57295866300970
C        -0.10037826566638    3.87200429433540   -2.97168314523607
O         0.00877777472485    5.13410093940652   -2.31316740446125
C         1.11910818051846    1.57916844942362   -3.13481216569264
C         1.85240161993008    0.52294830553040   -2.25923723917352
C         0.95392558948795   -0.68470302914920   -1.84860887356593
N        -0.14349131619710   -0.16294591885456   -1.01918278535563
N         2.64433187295861    1.19010989818368   -1.20695456127789
H         3.97787119906472   -1.23983085161240   -1.56540547201903
H         4.52475995599658   -1.60365141542307   -3.17554984276714
H         2.91247668124312   -2.21006240463808   -2.72916832294604
H         2.99697640574907   -0.01228995057779   -4.17678480009262
H         5.23873751694359    3.26095976398223   -1.62288695800765
H         3.74744484072424    3.45057887049567   -0.73108273318490
H         5.27011664640606    4.50018003364641   -3.41502710030624
H         2.07308258644482    4.42813941998638   -3.93882481270455
H         1.23867058569740    2.99481817812911   -1.48005418605494
H        -1.01002778586135    3.34341121503915   -2.66877275665906
H        -0.23171974541257    3.99641676808707   -4.05389859582396
H         0.88367601094803    5.41856394061261   -2.63951252860682
H         1.66487671777907    1.64702236640896   -4.08539239489097
H         0.11848532525153    1.14869685837986   -3.27578373560059
H         1.60384031406634   -1.34523151321942   -1.27523609889477
H         0.65230943432089   -1.19264763474358   -2.77310910863936
H         0.26283667335841    0.11266955003484   -0.12849191923318
H        -0.87082415432815   -0.84904726312422   -0.81122371834356
H         2.06152633417397    1.79558483394923   -0.63250587609225
