35
 energy: -49.732486246493 gnorm: 0.108555023194 xtb: 6.4.1 (79825abcba525fcdf90b791dcacef51065a7a4e7)
C         3.69642681623669   -1.44594192261056   -2.74704478637166
C         3.03897949278227   -0.10810809100669   -3.05273761851332
N         4.05985664193277    0.97244032528023   -2.92582434450660
C         3.73877245393053    1.65924248212526   -1.86750673243026
C         4.14963655001723    3.08921334046861   -1.71411516044641
C         3.60783802843472    3.92633110996636   -2.87902305031285
N         4.29385344824733    4.79681099284292   -3.55080606909188
N         2.32029738246326    3.67910225726026   -3.32525934385888
C         1.18987313693389    2.98470907507548   -2.67883369362519
C        -0.08994598726159    3.69257464193200   -3.19421821440093
O        -0.07520514663388    5.06976873091229   -2.81796681424491
C         1.08383147859373    1.48858754493372   -3.04849177000280
C         1.86636550494049    0.46626411850863   -2.17530964773631
C         0.94120401431929   -0.62131086315506   -1.54637924327550
N        -0.07254086081884    0.01959286841963   -0.69428434467364
N         2.71412857258185    1.08476028943029   -1.13688910333796
H         4.72325008718658   -1.39772101131331   -3.12860264483951
H         3.09504579863297   -2.20956851560933   -3.25138334441766
H         3.70493552845758   -1.68710474795559   -1.68209607332144
H         2.75199408310012   -0.12960244340365   -4.11287525076968
H         5.23206993130805    3.22209108031111   -1.78724947655275
H         3.74734150824409    3.44425045813460   -0.76328323726057
H         5.29804128800003    4.87403186372115   -3.34625465581474
H         2.19452394258465    4.03046978921225   -4.27742923275634
H         1.19004419951477    3.15655107727202   -1.59392347265682
H        -0.92337564284838    3.27499718575082   -2.62006520429024
H        -0.30455050420150    3.51831472702480   -4.25605516784938
H         0.69424640838090    5.39062618643715   -3.32576801623554
H         1.20707574121078    1.40886920072047   -4.13685110769648
H         0.01208379151383    1.30987059673732   -2.88773718423352
H         1.56157931297975   -1.30397781410050   -0.96625538660975
H         0.54621269551110   -1.13197323685302   -2.43344548382802
H         0.33046237011394    0.33659135695365    0.18406461395297
H        -0.77954904930084   -0.64850151232854   -0.38318242209755
H         2.18589799605794    1.48354848843859   -0.36345913636561
