35
 energy: -49.718774965241 gnorm: 0.113706942502 xtb: 6.4.1 (79825abcba525fcdf90b791dcacef51065a7a4e7)
C         3.51979627476901   -1.54829846470330   -3.01860709282337
C         3.06831802039248   -0.11889147195936   -3.28023178468024
N         4.05128616654203    0.98063410242674   -3.05506710080508
C         3.71091651359435    1.69605956358384   -2.02204080995450
C         4.11673535217165    3.07432789077899   -1.60629760524045
C         3.53567010148222    4.08435874585769   -2.60305386891280
N         4.06918126349494    5.21416515937851   -2.94736204404284
N         2.40224687314510    3.63904197980645   -3.26264057562010
C         1.25114422079107    2.90675717938198   -2.69994291245523
C        -0.01885409218783    3.70975808068946   -3.08325179271240
O         0.15814566213797    5.07927617506798   -2.72057115695743
C         1.07872506887827    1.45098704832539   -3.18705330175328
C         1.90615255735837    0.41997044316029   -2.36710194247066
C         0.95369815500683   -0.61009751241645   -1.68439615751617
N         0.11791993478886   -0.13177778994422   -0.57210708603324
N         2.70610996280730    1.06746693068888   -1.30862501395730
H         3.75145074579867   -1.65437136151826   -1.95213513863532
H         4.44475004952687   -1.71966523032797   -3.57917468695042
H         2.66897276101658   -2.20353887583680   -3.21636204358940
H         2.69173381638572   -0.04092363513804   -4.30922147365975
H         5.19108774932115    3.27474010723252   -1.62269912626737
H         3.70718442818967    3.36632107941091   -0.63728675784051
H         5.00109700083192    5.34861606533759   -2.53547179461446
H         2.16150974364683    3.99533075695812   -4.19054657302844
H         1.28801460339647    3.08765768674228   -1.61713384276944
H        -0.87487135982562    3.44332789129187   -2.45485940462438
H        -0.24226335980358    3.54042219072544   -4.14406892662207
H         1.01625862882472    5.33612824561120   -3.10856137955364
H         1.27719089787124    1.39330362517320   -4.26564226534477
H         0.04072433035064    1.19489049477921   -2.93527182539401
H         1.47094443305539   -1.52447095550180   -1.39487784732608
H         0.17138700310441   -0.87159053788757   -2.40778496985718
H         0.52525051442413   -0.06378555321526    0.35733112568612
H        -0.73308041046485   -0.65909315439251   -0.37028537999422
H         2.27120772571685    1.71281344694961   -0.65239227339473
