35
 energy: -49.727888076736 gnorm: 0.096394974817 xtb: 6.4.1 (79825abcba525fcdf90b791dcacef51065a7a4e7)
C         3.68115526317691   -1.39874487043672   -2.59187537345724
C         3.05034808337882   -0.12336884726833   -3.13130354382800
N         4.04584135554476    0.98382446492638   -3.03644511186910
C         3.69790708854063    1.68896273500498   -1.99887574358423
C         4.19788653239229    3.04016918018252   -1.59710882955578
C         3.64506691123913    3.89270620994960   -2.74553962594317
N         4.43439456280891    4.72399886623084   -3.35015454399961
N         2.34354895780391    3.74570167969159   -3.19548466568756
C         1.19991092311321    2.97007669374994   -2.67740656950706
C        -0.03528018497164    3.70132259514993   -3.26410428952661
O        -0.22954031328353    5.00650709720818   -2.71894157923472
C         1.10544358522862    1.51147038482674   -3.17722163529642
C         1.80770934027011    0.41257199395383   -2.32916690562641
C         0.87162107107569   -0.62261418822935   -1.63172524879098
N         0.08184753808501   -0.04820661753161   -0.53135455099550
N         2.63147058767122    1.11814837778569   -1.32759997030703
H         4.57387972821844   -1.61167918180855   -3.19185845054775
H         2.93526128239488   -2.19912471735025   -2.63852677256696
H         3.95552461212042   -1.28759762195206   -1.54082094244039
H         2.89307250421783   -0.23270651490367   -4.21298005937374
H         5.28310124380045    3.17044082588347   -1.59476897958932
H         3.74658323174239    3.29997327796939   -0.63752497753451
H         5.28827301140635    4.91095804964587   -2.80965900459845
H         2.25021818686576    3.85713039699366   -4.20779816043212
H         1.18363891250154    3.14719691486056   -1.59346767018302
H        -0.95689643412028    3.11485448896539   -3.19126029914355
H         0.12087503908756    3.69746243512962   -4.35016137082904
H         0.51752264706202    5.59108102289455   -2.94924034058644
H         1.56547499150759    1.47336072588430   -4.17370995952736
H         0.05478015293735    1.28658485016860   -3.40516398092762
H         1.44658281755405   -1.40873326031999   -1.14297260128462
H         0.26975775181924   -1.07121149950702   -2.43185130388228
H        -0.63786703125401   -0.67581916040131   -0.18134030941511
H        -0.45143278773943    0.80335750308171   -0.71423626913993
H         2.27429064962808    1.60884721337564   -0.51035421325011
