35
 energy: -49.722768618871 gnorm: 0.115969348250 xtb: 6.4.1 (79825abcba525fcdf90b791dcacef51065a7a4e7)
C         3.58364662607201   -1.27734695291595   -2.99539852408759
C         2.87309064924855    0.06132086708781   -3.13164500929071
N         3.88700470001719    1.15221487073074   -3.04326756553017
C         3.62728823351904    1.72691301733189   -1.90436554193370
C         4.16707493693793    3.08830997545269   -1.60041887454190
C         3.60571958207993    3.92519488720460   -2.75619827453830
N         4.19925106970722    4.88925307351944   -3.38703661017630
N         2.45231532745343    3.44046247806721   -3.35008629099153
C         1.23797673292552    2.97346714440696   -2.65352035437185
C         0.03201968805197    3.85720129510760   -3.06499743582419
O         0.42100796277118    5.17702840935396   -3.44603610149707
C         0.77305557967956    1.50393714178632   -2.75648351807492
C         1.75725393535334    0.48847981242257   -2.10829244220651
C         1.05179182894613   -0.79452002392199   -1.56928300698786
N        -0.12484548326160   -0.50371970291815   -0.73533949916562
N         2.63867102415061    1.15110819902556   -1.12666906535037
H         4.32426273535880   -1.37854519225324   -3.79759823303723
H         2.86336152259556   -2.10146446882450   -3.02948324470767
H         4.00635172491016   -1.34562705610918   -1.99090567097615
H         2.41349503756760    0.22455052411090   -4.11594291975288
H         5.25787012803722    3.05931211539671   -1.66360207400220
H         3.91878702979528    3.61415616853846   -0.67639890996049
H         5.11384911082375    5.06647709680930   -2.95310154651153
H         2.31209881295702    3.88404210528086   -4.26084533705002
H         1.35116950416056    3.11827150238101   -1.57057114789761
H        -0.66869718249091    3.74634518114330   -2.23113030972511
H        -0.41530086054849    3.38684412110046   -3.94963735604378
H         1.34167890928679    5.35644466598404   -3.17577312805953
H         0.75292003983188    1.25030063590579   -3.82481552903989
H        -0.25377632727780    1.34702468317294   -2.39952474272378
H         1.86713768614159   -1.35694983418108   -1.11505047043931
H         0.61241489828138   -1.41186028616964   -2.36270572647773
H         0.20834852040839   -0.03649663722614    0.10435145658015
H        -0.34666010800137   -1.40578075970173   -0.31098209176240
H         2.28844649203234    1.71294407446295   -0.35340539731725
