35
 energy: -49.714937980868 gnorm: 0.118490052088 xtb: 6.4.1 (79825abcba525fcdf90b791dcacef51065a7a4e7)
C         3.60083728187162   -1.37500296620805   -2.46662581461845
C         3.03862391305741   -0.12443182554585   -3.12652914110611
N         4.04156892262623    0.97887995202539   -3.07469843160172
C         3.80251040684950    1.66536913694919   -1.99469286553270
C         4.38902918066607    3.02879908955860   -1.80973507928882
C         3.53074918747696    3.94197120711881   -2.69336074149835
N         3.97641526889771    5.02308475199113   -3.25212729239143
N         2.37705381749970    3.50524070612388   -3.32285521904126
C         1.17750737461851    2.87346206735528   -2.73988777393016
C        -0.04643563901564    3.66695655419810   -3.26615940463240
O         0.06411719224554    5.02559174001964   -2.84150135160583
C         0.93130892079132    1.37926000859165   -3.04487637801538
C         1.87346033614892    0.44318644656690   -2.23489572239957
C         1.07457555255165   -0.66987593888988   -1.48845632379356
N        -0.03756953541751    0.06228746346211   -0.86269915641995
N         2.73685994613553    1.15731481624565   -1.27358479144162
H         4.22515991069964   -1.92031588606151   -3.18435331023860
H         2.83017415159746   -2.12032893040670   -2.24366925608286
H         4.15949648112231   -0.95161963824827   -1.62937189345068
H         2.56329212345163   -0.37381216669734   -4.08495678684550
H         5.36375571976289    3.00244636127815   -2.30357801611859
H         4.50285639513108    3.56902584607690   -0.86783678678667
H         4.92657194222847    5.14374156118958   -2.87951247580650
H         2.12384814474106    4.17336575399782   -4.05456650527655
H         1.12469804522687    3.01399349286808   -1.65176003838195
H        -1.00619135362319    3.29111401465852   -2.89705380197331
H        -0.06218424177773    3.67843487768292   -4.36321890890553
H         0.88767797024475    5.46167707352889   -3.13209468770515
H         0.97354930744410    1.33044071447264   -4.14118957278331
H        -0.09689082920678    1.14196023195716   -2.74005026906465
H         1.61184375289834   -1.33934559686604   -0.81719139516992
H         0.67021783362924   -1.31266267031097   -2.28029012067475
H         0.18373188319748    0.36901026333777    0.08141065900299
H        -0.92667498045152   -0.43807941820246   -0.81666031139202
H         2.18197759017334    1.69618630415691   -0.61178681645970
