35
 energy: -49.721779835639 gnorm: 0.120160699949 xtb: 6.4.1 (79825abcba525fcdf90b791dcacef51065a7a4e7)
C         3.68136814308773   -1.32469907647130   -2.74241546531650
C         2.95122135176478   -0.05097138987177   -3.14240031201304
N         4.00016109183145    1.00587487576652   -3.04921559603127
C         3.72032093483963    1.65370522704839   -1.95521663169213
C         4.26887986794487    3.00095008401148   -1.60712278856704
C         3.53926743378793    3.86214217957653   -2.64507079082567
N         3.99951015298880    4.96585523882307   -3.14470958390175
N         2.35390064012425    3.39030773910089   -3.18385429516424
C         1.09146918419980    2.96580670129958   -2.54826584927323
C         0.00940558979645    3.87946218693958   -3.17993337810823
O         0.55433072039417    5.19805560236058   -3.12688649163989
C         0.89165098418483    1.49332101511623   -2.97032051406430
C         1.81390265436546    0.50076297772525   -2.20596976117045
C         1.00882487887511   -0.71673873330601   -1.65475663895460
N        -0.25653718228195   -0.17334084610216   -1.13699263451272
N         2.66582430601461    1.16898898821020   -1.20234611782022
H         4.39452691165888   -1.68426941148531   -3.49367535456977
H         2.92942623143256   -2.09028831023975   -2.52424451025964
H         4.23158544336994   -1.09485135656396   -1.82765942439797
H         2.48080547354569   -0.16284091458734   -4.12876156775625
H         5.35487265484051    3.00718555462409   -1.73060523730589
H         3.96473582778294    3.29425546227783   -0.60042404903957
H         4.97141289068731    5.16889973083626   -2.87942565032219
H         2.19653454076201    3.74577792302017   -4.12978370964299
H         1.21302471761620    3.01786444942527   -1.45781909487999
H        -0.91159304110058    3.88371547080954   -2.58801190924559
H        -0.13834916773469    3.58104578454530   -4.22541676510192
H         1.52866206270252    5.13851143011482   -3.12732086906959
H         0.92586969609490    1.30815103013725   -4.05226845880648
H        -0.11575259447222    1.29351081718587   -2.58091225303663
H         1.51749648735265   -1.23395025263230   -0.84162147701491
H         0.92676160989088   -1.42718711701174   -2.48674787684053
H        -0.17536469812121    0.16654635451537   -0.18185690809111
H        -0.92071057059690   -0.94181980468009   -1.03064938937699
H         2.25151154599751    1.74438291096638   -0.47192141791081
