35
 energy: -49.721430275216 gnorm: 0.118799149120 xtb: 6.4.1 (79825abcba525fcdf90b791dcacef51065a7a4e7)
C         3.39301218925329   -1.36633634734309   -2.96701779477292
C         2.74640320959306    0.00016838335320   -3.14035582478503
N         3.87277703882627    0.97780570119130   -3.10308302402363
C         3.77037100064774    1.63991085019036   -1.98685805831316
C         4.50766010667131    2.93581202293466   -1.86769507841124
C         3.90232822790773    3.88795939891777   -2.90611254659311
N         4.37745398331670    5.01508194569759   -3.33447578160651
N         2.70969400190672    3.47459638397314   -3.47599361882540
C         1.47760354756816    3.11404620283584   -2.74807630532423
C         0.39944498558537    4.10032290141054   -3.26717571049507
O        -0.89779358034100    3.91195672827685   -2.70136988501322
C         0.88232868177874    1.68859931809032   -2.75260300582177
C         1.75716230221120    0.59676588832481   -2.07251659063279
C         0.96084918392315   -0.54518150705955   -1.36814589207574
N        -0.13215863085164    0.03129459555097   -0.56970291787180
N         2.72941913004956    1.24125207692809   -1.16757951026576
H         4.20194084920027   -1.36895127784784   -2.22681156610710
H         3.82613202389586   -1.43469689077562   -3.97044997032378
H         2.63182838439500   -2.13679729735026   -2.82796096700019
H         2.29511863321987    0.04934315187529   -4.14067501499277
H         5.58492599781238    2.84690480177083   -2.02974699639701
H         4.48072422213393    3.32414115630428   -0.84767109707154
H         5.36457610530510    5.06158432932880   -3.05229674214434
H         2.45767793594203    4.01753723965048   -4.30521537544802
H         1.71237442072090    3.38107523814268   -1.70877942428115
H         0.54141751657333    4.17477699183170   -4.35019370361041
H         0.59282040591495    5.14100660774122   -2.97820738752671
H        -1.27722923403357    3.06806286273423   -3.01239880088559
H         0.66484418527119    1.35590190781032   -3.77636230975370
H        -0.06310561398564    1.70657519238603   -2.19380454899470
H         1.68135752095245   -1.07317227571314   -0.74401702963389
H         0.60978240466709   -1.20382107980176   -2.17227693159258
H         0.16999863322704    0.67303961405618    0.15917351439409
H        -0.51231596441475   -0.75912285143992   -0.04652441432496
H         2.32598836625968    1.94107102876573   -0.54810350171421
