35
 energy: -49.726101747037 gnorm: 0.120264992565 xtb: 6.4.1 (79825abcba525fcdf90b791dcacef51065a7a4e7)
C         3.65990022363391   -1.41009331151710   -2.63139821619121
C         3.05798409654337   -0.08169074623058   -3.06559637604590
N         3.96493130468999    1.09847802343545   -2.96297842465963
C         3.57396328573182    1.77005453099039   -1.91848935472256
C         4.11837784683054    3.13888746028577   -1.65952194184134
C         3.65861207855305    3.95954343122747   -2.87049733548557
N         4.44115942824150    4.69205395662446   -3.59898396805440
N         2.35450672101664    3.78251530096236   -3.30175142531355
C         1.30429586407929    2.96298377805477   -2.66666702715217
C         0.03303263868084    3.76632125986319   -3.04504584438795
O         0.07654077404601    5.15635445242690   -2.72199674995930
C         1.08449200910070    1.46853819614578   -2.99007105292602
C         1.86316924902042    0.40420006196460   -2.16496635813785
C         0.96337324699556   -0.77027353621539   -1.66971342654826
N        -0.22155724869861   -0.19918527684972   -1.01069909026822
N         2.59387678199520    1.17825782189847   -1.14200105411687
H         4.66341031943250   -1.51872591654420   -3.05970199255271
H         3.08866334983605   -2.26654767474475   -3.00464938741739
H         3.69452533465349   -1.49704226118698   -1.54346961194894
H         2.70041192276356   -0.03780492292376   -4.10334904439709
H         5.18995991309024    3.29819002695532   -1.51460232718051
H         3.63865147053130    3.56596323539196   -0.77666131343731
H         5.43697733833741    4.64288111210290   -3.34973252419738
H         2.22124807371223    3.95030165118365   -4.30174915665355
H         1.48468243648862    3.15562073748787   -1.60040647379084
H        -0.74964620080238    3.41241264305120   -2.36623060939625
H        -0.26239446640919    3.51730300189555   -4.07199864672231
H         0.87055928145304    5.45718878327435   -3.20355731393878
H         1.11284919720405    1.24282434924107   -4.06446358569694
H         0.01435199902879    1.27258796887026   -2.83897924180424
H         1.58892937178195   -1.40261319754725   -1.04021406705724
H         0.59999863439435   -1.33179783042801   -2.53938581565773
H        -0.15991587740001    0.03884313547673   -0.02381543354766
H        -1.04891029100468   -0.79576195395762   -1.06147600410309
H         2.13278636222133    1.66272950678475   -0.37457921381280
