35
 energy: -49.714054076931 gnorm: 0.115720325672 xtb: 6.4.1 (79825abcba525fcdf90b791dcacef51065a7a4e7)
C         3.52367841553902   -1.39809566706078   -2.70993693531072
C         2.97083711992798   -0.07395131471328   -3.21638798830134
N         3.95353744338781    1.04349345062180   -3.10915340910305
C         3.63091828702289    1.57906459960036   -1.96726513824114
C         4.02724530648212    2.93873773420168   -1.48625705804864
C         3.49094475961968    3.92235711239774   -2.53325123569320
N         4.01576519726860    5.06659525245802   -2.84135409537331
N         2.51844301977611    3.37995433052248   -3.35668879390690
C         1.20982158486149    2.93343679718037   -2.84089912237183
C         0.12472501916635    3.86499786554617   -3.44039159750729
O         0.46104153723457    5.21424505368804   -3.11655649003607
C         0.92253180984199    1.43680267957181   -3.09353005703410
C         1.78453723842684    0.41052191249792   -2.30381741017157
C         0.88748612203942   -0.66975795657381   -1.62367682048414
N         0.07464003356361   -0.01416269682484   -0.58734769460201
N         2.58593206488854    1.04215948576106   -1.23687916255920
H         4.31360748092019   -1.68138058229461   -3.41565600826902
H         2.79590261765952   -2.21429692101753   -2.76738235728720
H         3.98648109768792   -1.30512055599189   -1.72529640767467
H         2.75765318390061   -0.31136871235903   -4.26753021719245
H         5.11798190787897    2.97472511713408   -1.42571201520237
H         3.68502188648668    3.26442875307545   -0.50198957577550
H         4.92751673178415    5.14139636896030   -2.37304704086175
H         2.53072929348972    3.62907205658662   -4.34850278021296
H         1.16800715802767    3.34761062113725   -1.82439950704694
H        -0.83369472762103    3.56527888545279   -3.00424057818457
H         0.01735666176403    3.73628022228386   -4.52474537903272
H         1.22565827867969    5.58923995241402   -3.59363858257381
H         0.98848118861120    1.12312001255537   -4.14392238914263
H        -0.12021919860595    1.36245359629843   -2.75653241997978
H         1.61703076242058   -1.34261925687888   -1.17371499094975
H         0.34951467768110   -1.19872005065141   -2.42021089050490
H         0.72241453677277    0.41056617591527    0.07173508904619
H        -0.47305023090863   -0.65154398070043   -0.00702403083204
H         2.08429328339524    1.60899563783559   -0.55621126777114
