35
 energy: -49.716909102587 gnorm: 0.118958322909 xtb: 6.4.1 (79825abcba525fcdf90b791dcacef51065a7a4e7)
C         3.54421582897643   -1.45018518166184   -2.75691214758340
C         3.02405798982361   -0.10129059572796   -3.23167908415929
N         4.14736409617133    0.85987074414130   -3.03109429986210
C         3.83460922497337    1.59652406966374   -2.00427656066457
C         4.38586272363688    2.93762597692598   -1.63723409779678
C         3.57215252264927    3.85369229267984   -2.55919959222072
N         3.89136650887643    5.08056610945612   -2.82850957832636
N         2.47793896887384    3.44240533778068   -3.30186341708973
C         1.17697930514051    2.93416970286951   -2.82530551593847
C         0.07031588943671    3.78937619305042   -3.49504408132744
O         0.01371740187923    5.08312705857966   -2.89383591394495
C         0.88215320714378    1.43001752948887   -3.01733493788526
C         1.85712222322800    0.43592275675650   -2.32367605646414
C         0.96321496307942   -0.57101506613608   -1.53544857867538
N        -0.11140301010672    0.07232576276088   -0.76356079462460
N         2.69284795349915    1.16782588751936   -1.35134008812116
H         4.27589583435605   -1.93608548465122   -3.41328318521911
H         2.84233533978206   -2.28973791316621   -2.79761918777327
H         3.90481032755867   -1.38870479854363   -1.72805869235077
H         2.81101948058035   -0.03526005058400   -4.30730400139033
H         5.43666039096495    2.98423528568320   -1.93441916461586
H         4.34831737851477    3.08815467499699   -0.55653735975912
H         4.72922892280972    5.39163491194977   -2.32114349803150
H         2.45462683229040    3.85619326208734   -4.23681886011228
H         1.15901799296411    3.10633929544932   -1.74059592525669
H        -0.95238530716084    3.43261220813812   -3.33557839229683
H         0.29925592890494    3.99644404589783   -4.54795845693700
H         0.87817710739837    5.50545176923689   -2.72885556701425
H         0.77330655659592    1.21790841720800   -4.08935747566187
H        -0.10845349853830    1.08865002890212   -2.68780278096744
H         1.59545377635908   -1.20544960057540   -0.91479549196146
H         0.42765129643082   -1.17669706748591   -2.27706948840358
H         0.26264635415484    0.76625546858634   -0.12095269357359
H        -0.58022357350397   -0.59770424918141   -0.15179111091563
H         2.05251561190798    1.66888252968684   -0.73882869360986
