35
 energy: -49.723772022054 gnorm: 0.114690635972 xtb: 6.4.1 (79825abcba525fcdf90b791dcacef51065a7a4e7)
C         3.61087506501539   -1.51569356230339   -2.37495013596514
C         3.04531306178992   -0.34058737160892   -3.15900977756387
N         4.07935937970798    0.73478420075351   -3.14464983932119
C         3.77967445218373    1.51690750549015   -2.14800522063799
C         4.42544781869650    2.85011672665315   -1.94140209477946
C         3.60242573761972    3.92970981681661   -2.65444878691054
N         4.10462681801508    5.11468285630931   -2.80701932140573
N         2.42262481753119    3.60433954323780   -3.30268779065965
C         1.23825177388627    2.91513593624348   -2.75481384268919
C        -0.06056179191742    3.60058147326368   -3.25268888529289
O        -0.36605074816886    4.83850497218513   -2.61029659331357
C         1.25461605575981    1.46441157508793   -3.28528777945580
C         1.91409273725500    0.40355128662738   -2.35813208579545
C         0.76682099853340   -0.37706703018008   -1.64490057642130
N        -0.04318898238581    0.56247441204900   -0.85392163207232
N         2.75467830007347    1.06146096047612   -1.33826555414886
H         4.59802434722149   -1.62562663335883   -2.83941617697932
H         3.04883916195299   -2.44552074536709   -2.51162176878819
H         3.85922948479951   -1.33298456071551   -1.32743633141139
H         2.78098209358936   -0.64365853331430   -4.18125800178377
H         5.47031553789681    2.78959748443351   -2.25645129237141
H         4.26385916806110    3.13159080656850   -0.89898401218605
H         4.97918883800801    5.29377189701575   -2.29783767413847
H         2.17789808084503    4.40269348447054   -3.89314982374565
H         1.33339109598409    2.93418014965855   -1.66067229893798
H        -0.90764158864257    2.98442085121210   -2.93420890340221
H        -0.09138054833346    3.70822277288016   -4.34419375355764
H         0.17938471408103    5.59576916888178   -2.89651041282666
H         1.79606187121488    1.35997864136367   -4.23502480150169
H         0.23879635242054    1.07608195107230   -3.43935048040404
H         1.23185289514944   -1.06257357344275   -0.93689670418079
H         0.15020998218571   -0.94600398847847   -2.35185340543740
H         0.17223305230198    0.68381333129286    0.13262119556004
H        -1.04287616781911    0.36560799112101   -0.92366565810689
H         2.32065471638231    1.81424207784006   -0.80798486190770
