35
 energy: -49.725257359785 gnorm: 0.118562600137 xtb: 6.4.1 (79825abcba525fcdf90b791dcacef51065a7a4e7)
C         3.63492918257982   -1.51597548721117   -2.52693134200126
C         3.12854274668575   -0.19417581851546   -3.08541398205542
N         4.19155185608839    0.83339908101071   -2.88545532424195
C         3.75138377051442    1.67219349059519   -1.99242429920422
C         4.23040939859405    3.06722923493145   -1.74430205361824
C         3.59425201656439    3.90150112822414   -2.86261166031937
N         4.30048991867607    4.63796778927962   -3.66166715947567
N         2.25601158541684    3.76961730976894   -3.19386540266172
C         1.15844946203912    2.90839572512852   -2.71265677112107
C        -0.11136132136704    3.72311400224060   -3.07105117012152
O        -0.27753847412551    4.76560294127973   -2.10977705313534
C         1.15863705559134    1.49784305412380   -3.34242868900664
C         1.88321195409975    0.48738211862009   -2.40759628872382
C         0.91090750575927   -0.49663701759658   -1.68605144040200
N         0.12349889369173    0.24291357001932   -0.68727489488402
N         2.62860972998392    1.18959804552833   -1.34419048570134
H         4.58954252001922   -1.68879335470969   -3.03793529979046
H         2.97711880816696   -2.35092974688109   -2.79014033792866
H         3.79160249568278   -1.41046979877789   -1.45144554927203
H         2.88111586518186   -0.18320006693595   -4.15563540725830
H         5.32127366829008    3.11330261883553   -1.79489373172399
H         3.81447337744566    3.40393740203927   -0.79267248192106
H         5.28151693677761    4.82479294604070   -3.41901532783681
H         2.10039179082791    4.25646559725837   -4.07967961744529
H         1.23307362442293    2.96882111366540   -1.61842649539982
H        -1.00213369447538    3.09381808456071   -2.97545397285690
H         0.04419975816707    4.14009227617072   -4.07397150722189
H         0.30259971922936    5.47985378597934   -2.43558784130498
H         1.76592119828210    1.53192146651210   -4.25682184620767
H         0.20378198936271    1.04092232852448   -3.63551591115275
H         1.35732412918339   -1.34958883524618   -1.17553331998637
H         0.25573349263669   -0.84900907852881   -2.49243947160035
H        -0.22101910544559   -0.50769169603129   -0.09372993078777
H        -0.56805030988601    0.88402683679131   -1.07935723767834
H         2.15242012766533    1.57943421048172   -0.53331151660730
