35
 energy: -49.719159212132 gnorm: 0.111600510909 xtb: 6.4.1 (79825abcba525fcdf90b791dcacef51065a7a4e7)
C         3.51018253245325   -1.54427806203848   -2.61164958880145
C         3.07652503881949   -0.16824621365762   -3.09534572763071
N         4.16110740771272    0.84738899912231   -2.96100222276209
C         3.83735629044826    1.66250193481016   -1.99891880590518
C         4.36796680105630    3.04715915407113   -1.80313379622052
C         3.53938893307480    3.92967120234534   -2.74438476938880
N         3.92219873782487    5.10461602573222   -3.13503311414638
N         2.49332186650071    3.34443199513953   -3.43810562664645
C         1.26460035608515    2.86086388062285   -2.77908185451811
C         0.02988346205830    3.70524052041713   -3.18790225245648
O        -0.06043403017970    4.97649571964471   -2.54431937146529
C         1.06610954068892    1.36886270623090   -3.12665263838163
C         1.91673184338266    0.43412087951023   -2.21965148151759
C         0.91322443059149   -0.51290876730669   -1.49136291321382
N        -0.28556866209532    0.22458477390943   -1.06299349697768
N         2.71819102534828    1.25827349763027   -1.29337261097970
H         4.44748334135847   -1.81905083921450   -3.10989128955532
H         2.71951276608917   -2.28738505498140   -2.75921445894026
H         3.91655268935432   -1.43646011821674   -1.60388659551373
H         2.86338558390900   -0.18366273297667   -4.17286524356360
H         5.43178664389418    3.02560488665744   -2.05311357543726
H         4.17671750786763    3.37059701746565   -0.77805543480382
H         4.81809440235532    5.37940793037705   -2.71306399902732
H         2.22504107864313    3.92300884132675   -4.23759287784150
H         1.26584847458561    3.16060602640473   -1.72233544017633
H        -0.90799190200360    3.16949720593424   -3.00902661473936
H         0.00618805153266    3.89956122702863   -4.26753057693564
H         0.61847945729180    5.54068550038175   -2.96101305822483
H         1.23743347211119    1.24161456366248   -4.20392986513747
H         0.03841823029365    1.06648229833709   -2.88407989001344
H         1.36460700760753   -1.07822562153642   -0.67643103495049
H         0.70150604047206   -1.20235648668021   -2.31811431148464
H        -0.03237225519803    1.07551629133046   -0.56680435223217
H        -0.86162942829008   -0.42881356764515   -0.52987091806281
H         2.55414056674333    1.15143202675502   -0.29441024869088
