35
 energy: -49.716560058767 gnorm: 0.126502966733 xtb: 6.4.1 (79825abcba525fcdf90b791dcacef51065a7a4e7)
C         3.68598019053186   -1.45580246762633   -2.75590840727141
C         3.07540047217527   -0.12345444123199   -3.16520726009168
N         4.04138992872099    0.99523303256441   -2.96202089208080
C         3.70399741276610    1.71006349729978   -1.92760699070424
C         4.25314241223197    3.06073505274890   -1.59401881864096
C         3.64917977695547    3.82430219720550   -2.77871985903740
N         4.34021834771028    4.49738774668208   -3.64420605472244
N         2.28316295670310    3.97224602297458   -2.95227249164548
C         1.16008670620774    3.06865452176689   -2.63584070740262
C        -0.06155710948199    3.85292079233359   -3.18095043644653
O        -0.22402145810629    5.06757170912694   -2.44836976684363
C         1.13720195681005    1.59837762615631   -3.10916258059489
C         1.87788951766292    0.47018333771694   -2.33552752684041
C         0.92364220097761   -0.59210791831214   -1.70684171950130
N        -0.14024701462100   -0.11603563006470   -0.80906844274579
N         2.62979687219314    1.14828066886833   -1.26110849458630
H         4.18589479828330   -1.46388337986448   -1.78005096213023
H         4.42706604187572   -1.67805496860897   -3.53085205924654
H         2.93993945924807   -2.24941194854776   -2.83307625899295
H         3.01347199077201   -0.02196684496654   -4.25726015853690
H         5.33692777753050    3.05535631735583   -1.45242967578216
H         3.68138258840551    3.48460011792929   -0.76612804938418
H         5.34701127654489    4.40907367529480   -3.45774910958234
H         2.29161564806601    4.29172545439319   -3.92374923042349
H         1.13643189815464    2.96441245061258   -1.54261890180021
H        -0.90191753468046    3.18467539476318   -2.96677751146831
H        -0.01637013905861    3.98171834817044   -4.26966006159147
H         0.56067319241219    5.64092105887659   -2.53997810736187
H         1.38975021051261    1.45744210910476   -4.16860901048508
H         0.08677173840223    1.27953672958759   -3.07226141287632
H         1.66263827977505   -1.23177956569262   -1.22502398081119
H         0.51127232552938   -1.16791096301386   -2.54474543341249
H         0.21165436762510    0.25426975614918    0.07038358524600
H        -0.77360106160194   -0.91192535873977   -0.71732274021013
H         2.09160866814846    1.63029280623529   -0.54398142678850
