35
 energy: -49.718055824959 gnorm: 0.116318268116 xtb: 6.4.1 (79825abcba525fcdf90b791dcacef51065a7a4e7)
C         3.77389437547431   -1.36133430969071   -2.76064763702389
C         3.14000260984673   -0.00450306909308   -3.03022996338478
N         4.12696571232715    1.05458527307277   -2.66951163425986
C         3.59221868472637    1.78280985805109   -1.73219472020904
C         3.93097132853684    3.23464862978062   -1.61150597456823
C         3.57290142092289    3.79927576758870   -2.99147131331465
N         4.32956519051294    4.65565772865773   -3.60279338720652
N         2.35564165082442    3.42461196018920   -3.53545248642060
C         1.17275510872097    2.90164490398589   -2.82468399913255
C        -0.01208305546398    3.85122714552383   -3.13945994645862
O         0.35097234155340    5.08066033650107   -2.51086566832159
C         0.89506891414229    1.39601567094859   -3.03021378180930
C         1.83171471802612    0.41747316807584   -2.26529491274672
C         0.91758863168237   -0.72663524916326   -1.72707007662523
N        -0.01832541748306   -0.08308249064269   -0.79197290688652
N         2.46009832425629    1.20498339745353   -1.18616627443597
H         4.85207120040387   -1.35045052629386   -2.95988104837822
H         3.22805247007832   -2.02060103580407   -3.44370406061596
H         3.66271438827697   -1.70760117083484   -1.73104289290911
H         3.01574813472334    0.27100091198702   -4.08634207662455
H         4.99396005873152    3.45928877315590   -1.49209530783609
H         3.23304714841246    3.64012093185523   -0.87634064674351
H         5.24920881975117    4.86867365567308   -3.19649624414156
H         2.28225707353938    3.73065797812358   -4.50851780986137
H         1.39720441764866    3.09935506271490   -1.76775775591518
H        -0.82301626936018    3.47784024103669   -2.50574302437779
H        -0.28499034761934    3.98991238816769   -4.19312371085817
H         1.18371905800025    5.38544554352984   -2.91891731340864
H         0.91839108583853    1.04281921172146   -4.06981877018729
H        -0.07578936362842    1.12369192152679   -2.59466946872393
H         1.61057689924051   -1.40973764268577   -1.23657874933819
H         0.49956689012526   -1.33436094246244   -2.53923262627901
H         0.30516892173598   -0.12004987049293    0.17155258014863
H        -0.94772228400503   -0.48915583108891   -0.67230256865980
H         1.90333316207043    1.80006215299758   -0.57612749641363
