35
 energy: -49.720887487845 gnorm: 0.112156234218 xtb: 6.4.1 (79825abcba525fcdf90b791dcacef51065a7a4e7)
C         3.68869896485150   -1.44636183457548   -2.67993968561381
C         2.98065780849375   -0.15845329668057   -3.07421593229127
N         4.00665701490033    0.92399217769634   -3.11319571187192
C         3.74575294185352    1.66991076613474   -2.07861225705108
C         4.27562161683978    3.03683695175511   -1.78212128953671
C         3.58038763171268    4.02138618932269   -2.73008471778059
N         4.11243833291107    5.08350945881345   -3.24821693598325
N         2.39266916177833    3.54319782500681   -3.25797726435141
C         1.19062109361415    2.95411751506538   -2.63671099424637
C         0.05538826848789    3.87280572098691   -3.15814194327607
O         0.29531377971015    5.24311720720542   -2.83700625002290
C         0.94230373748730    1.45086461462957   -2.89134939189279
C         1.82598076321516    0.39840315682546   -2.16238336815924
C         0.91701088318795   -0.73914101399794   -1.60196962811203
N        -0.30847727437412   -0.18552545935097   -1.00515259828305
N         2.73584198807883    1.15904980283148   -1.28310744115244
H         4.63241710707501   -1.44547899622819   -3.23821647245941
H         3.10036737569694   -2.36975044957324   -2.69895238315321
H         4.09834964796719   -1.34900972901694   -1.67243953508804
H         2.68906980786260   -0.29952467146137   -4.12387765221157
H         5.36752613276535    2.99913999318549   -1.75064774504667
H         4.02505480784554    3.24017549598357   -0.73912382828450
H         5.08292390228351    5.17056016104158   -2.92144867275525
H         2.14819110971670    4.09550857422318   -4.08325837648444
H         1.09817945469330    3.14342923798793   -1.55866855836747
H        -0.92970629002621    3.70995405939074   -2.70903657122978
H        -0.15788154481457    3.69639426304786   -4.21989253063416
H         1.15743237859661    5.51058940095432   -3.20859393370879
H         0.95045797335655    1.19189496392118   -3.95855997503097
H        -0.10101001330667    1.25896386201126   -2.60657686997046
H         1.44026470336359   -1.35365711591905   -0.86983660991719
H         0.66180715201388   -1.24392180654334   -2.54204841271462
H        -0.08656351795166   -0.15104555992758   -0.01320403027847
H        -1.11412238503160   -0.81183336557356   -1.04601145852127
H         2.30254136167300    1.56951335576893   -0.45847193999488
