35
 energy: -49.718569298030 gnorm: 0.122930076292 xtb: 6.4.1 (79825abcba525fcdf90b791dcacef51065a7a4e7)
C         3.71141991679897   -1.44577380089948   -2.61230865403723
C         3.06719866289192   -0.15539863738297   -3.09748425869383
N         4.09250709890795    0.92475710075880   -3.00866866066785
C         3.76077507271792    1.58450813691448   -1.93651621423474
C         4.25182178937167    2.98669588779950   -1.76360703239674
C         3.62680370991007    3.91042469549816   -2.81593763135588
N         4.27852308813844    4.81468962633664   -3.47715741269345
N         2.33710063986565    3.59991923547916   -3.21375946063497
C         1.14690740124265    3.00416712114916   -2.57624360356142
C        -0.03811043125345    3.89310789315466   -3.03466359370893
O        -0.01853392737683    5.24558955604200   -2.57765585577561
C         0.96748112552300    1.53619423627956   -3.02248724859651
C         1.88612049802309    0.51000859693652   -2.29930231069587
C         1.02982516054797   -0.59398554694082   -1.60485877800824
N        -0.29031735151199   -0.22184638607899   -1.07265752870769
N         2.67309204770449    1.12802793440314   -1.21381401079860
H         4.68775741881400   -1.42132049521326   -3.11075103345150
H         3.18519763588488   -2.32181637974137   -3.00573157361508
H         3.70109178209109   -1.60189413613434   -1.53162949838324
H         2.71729429925146   -0.34877823530481   -4.12065858237121
H         5.31195494298991    3.11192773242207   -1.99834483980431
H         4.08965196497612    3.25999704837560   -0.71910646988733
H         5.25789745142070    4.83439970124156   -3.16629580551545
H         2.07242119917814    4.22272628742624   -3.98054611729224
H         1.20351119518496    2.99730609820712   -1.47928926223239
H        -1.01789122782421    3.57775344452709   -2.66155669388120
H         0.01075305657612    3.90288990080505   -4.13076395751574
H         0.69846526998517    5.65230692324224   -3.10049464187804
H         1.15206171457476    1.49567924506233   -4.10431845564315
H        -0.07092638676527    1.25061863205465   -2.80666024048885
H         1.71056538673016   -1.13476784330997   -0.94790320853775
H         0.75789052571814   -1.24511130395580   -2.44495848942096
H        -0.29395326375036   -0.19156801992104   -0.05606196570493
H        -1.04855085839060   -0.83686449548667   -1.37237365887437
H         2.33996442830348    1.81516799010795   -0.54067359039519
