35
 energy: -49.719634242889 gnorm: 0.121333032841 xtb: 6.4.1 (79825abcba525fcdf90b791dcacef51065a7a4e7)
C         3.40440340976715   -1.58071844721942   -2.79064592872085
C         2.83538141123802   -0.20950337657121   -3.12451360416294
N         3.94019553282489    0.78665483535524   -3.23825264502564
C         3.83776747221310    1.54520103487190   -2.18518827507902
C         4.39989927618884    2.92919437730876   -2.10952330747776
C         3.46550535413105    3.95863660954962   -2.75642274669928
N         3.65769488577744    5.24030186007372   -2.76291692899868
N         2.39814477621777    3.37545248626662   -3.41872746113492
C         1.14081949691376    2.98393221191887   -2.75258032691103
C         0.00717994964969    3.89934027640275   -3.28316611500639
O         0.39918460095432    5.27215098857591   -3.29616844380674
C         0.82921627791537    1.47141235128100   -2.79077236093104
C         1.83785816334708    0.48935087193531   -2.12884452908407
C         1.07822146151999   -0.60814857235218   -1.32091903809625
N         0.24190214412660    0.02361642647647   -0.28847293430086
N         2.83676891999533    1.19095148574840   -1.29848869852068
H         3.88218398037100   -1.59465695990164   -1.80382825443563
H         4.18483442634235   -1.74742898908866   -3.54049731705654
H         2.58645300597904   -2.30013356643832   -2.86645284117079
H         2.39331944566703   -0.27820480281668   -4.12779609170511
H         5.39290815405551    3.00253194364028   -2.56032493321263
H         4.41542169649326    3.05908577712218   -1.02561312260565
H         4.60485981361939    5.55663614899833   -2.51999970226632
H         2.22447923190777    3.70417956411599   -4.37145217820017
H         1.25016539424066    3.28297165376750   -1.70130549224347
H        -0.81405260401598    3.70100605098569   -2.58684131676821
H        -0.24566577902134    3.58893647694703   -4.30475206165488
H         1.27370931796554    5.33493890467497   -3.72527385965476
H         0.77258360306661    1.37214820820255   -3.88302213943657
H        -0.16281808002258    1.33102018879422   -2.34068043782499
H         1.79134427257661   -1.30417367579568   -0.87995615193938
H         0.35196628785060   -1.09877003709790   -1.98086199619703
H        -0.39453277466110   -0.65318602761729    0.12539367423007
H         0.64908993451698    0.47034544263625    0.53470770838340
H         2.51968620571849    1.85078992849124   -0.59115196288535
