35
 energy: -49.721584313610 gnorm: 0.115818904846 xtb: 6.4.1 (79825abcba525fcdf90b791dcacef51065a7a4e7)
C         3.66382576965048   -1.45067499485857   -2.72847368328210
C         2.96118989911122   -0.22537671430526   -3.29454031083497
N         4.01608734340387    0.82006939284848   -3.43637064202494
C         3.81239867495105    1.50229090900513   -2.34645634892044
C         4.45298515693455    2.81087009325148   -2.00818954302085
C         3.57547205828611    3.93196803536610   -2.57777917676597
N         4.08614790196389    5.10751590553962   -2.76998270916702
N         2.23525855505154    3.79265249813263   -2.89782413118371
C         1.10601501711530    2.92886821817945   -2.50210614923112
C        -0.10407067915737    3.72454353526552   -3.05638518890978
O        -0.03480778177344    5.13989230868374   -2.88192469565390
C         1.07257448194012    1.54718991139822   -3.19211944695508
C         1.81538827499541    0.41453135308070   -2.42709396440016
C         1.02432028445023   -0.55343488540773   -1.49352586840351
N         0.07125647709578    0.12719678703013   -0.60306986769431
N         2.75401349758371    1.12763396230988   -1.53826082365815
H         3.79196846138701   -1.38012759398041   -1.64179056401785
H         4.64871198110053   -1.54011308030263   -3.19873112946669
H         3.06726678467240   -2.34954063746611   -2.89730971851735
H         2.57230287167233   -0.55284973666395   -4.26831786985030
H         5.47774536336923    2.95905348580034   -2.35829715480878
H         4.48655583671397    2.82311633181764   -0.91699888762517
H         5.07787479114928    5.12051692642285   -2.50071273542089
H         1.89032006865799    4.63705575996735   -3.36032404969061
H         0.87515205457016    2.83238819650238   -1.43254839973441
H        -1.09692744989985    3.49420549214007   -2.65662599166737
H        -0.14847103086201    3.57955058283376   -4.14308891519656
H         0.21193263633686    5.31853103729984   -1.95452260810089
H         1.72080332682281    1.61136345763120   -4.07628648652052
H         0.08487924938227    1.22789469147410   -3.55119264857901
H         1.77242663913704   -0.96916762046296   -0.81902861265150
H         0.63532957349574   -1.32566334217706   -2.16882591669096
H        -0.27420729307607   -0.48091473384887    0.13534173915944
H        -0.75304876460833    0.44638888138279   -1.11456997692804
H         2.42987685790578    1.84587404692208   -0.89380747347045
