35
 energy: -49.725841785105 gnorm: 0.108476396026 xtb: 6.4.1 (79825abcba525fcdf90b791dcacef51065a7a4e7)
C         3.29116199177301   -1.45350136706055   -3.07431178315010
C         2.88139422348454    0.01018150828495   -3.14647283457300
N         4.05057837071019    0.90049385584250   -2.88911252213864
C         3.77509375020857    1.66537223238758   -1.87230492308699
C         4.33071564695149    3.04603752246491   -1.72329963394267
C         3.65998969230868    3.80790498981301   -2.87265024797716
N         4.14427391615227    4.76626104128504   -3.59836869658959
N         2.41253985754191    3.36649504837028   -3.28135062080942
C         1.15723940527005    3.01143806090747   -2.59137797540303
C        -0.00636528469912    3.80572799464628   -3.23926641952157
O         0.13513972497706    5.22403820192496   -3.32184020704111
C         0.75334938577798    1.52862585267877   -2.74762242290748
C         1.78771674689298    0.53522424777740   -2.14497073299233
C         1.09228181183364   -0.63041337601883   -1.37558415342450
N         0.26343563847122   -0.15982347476015   -0.25484282347779
N         2.62071026942528    1.30546593894312   -1.20029807200744
H         3.72001041299121   -1.58609745025351   -2.07391936772732
H         4.04510753062365   -1.74849916891879   -3.81166142044349
H         2.48788932107217   -2.18284873033460   -3.19740968369305
H         2.59651742228573    0.25745392745916   -4.17817820033183
H         5.40203274670364    3.20999352063491   -1.86495142166107
H         4.00775835549882    3.58354435099377   -0.82956645658430
H         5.09432073776945    4.94637965403905   -3.25027978531053
H         2.22000166064754    3.93999284065646   -4.10593228953330
H         1.08879312414221    3.15512942695842   -1.50453494803341
H        -0.94980276806858    3.68514558589473   -2.69703659409477
H        -0.17260821998922    3.46120522970924   -4.26765675102525
H         0.99933063117076    5.37398763727595   -3.75027515441485
H         0.54412900315504    1.21020809564483   -3.77762589534461
H        -0.17133892364993    1.38770378038119   -2.17184697687815
H         1.88590632262496   -1.32584572286928   -1.10359639478605
H         0.45570248128889   -1.14818302162824   -2.10384375798308
H         0.16504205495632   -0.98159979564666    0.33625693171914
H         0.93495301046014    0.41322308416584    0.25865220776099
H         2.26005085624736    2.00871437301863   -0.55872196913051
