35
 energy: -49.720587118630 gnorm: 0.112158378410 xtb: 6.4.1 (79825abcba525fcdf90b791dcacef51065a7a4e7)
C         3.46579585745280   -1.29625236352118   -2.56248612165637
C         2.83826887211419   -0.08154610990889   -3.23045548438901
N         3.84567837840059    1.01128791785593   -3.35976863578159
C         3.80290370622059    1.69516291597902   -2.25282972755151
C         4.50261484615691    2.97200096085181   -1.91042077315293
C         3.90706064837277    3.81512226515305   -3.04434486472413
N         4.63859982197491    4.61035088821740   -3.75996115176549
N         2.54604117943837    3.77413743967858   -3.29724022981149
C         1.42017250163149    3.10962189865444   -2.61259013065105
C         0.23330576907198    4.04369356431833   -2.96400061287436
O        -0.89700758890995    3.56697185848108   -2.23353905133817
C         1.01466192998365    1.65100230154530   -2.91961059043317
C         1.83478220044771    0.54600758830620   -2.19411687954816
C         0.93502373368559   -0.42733909245848   -1.37111778480167
N        -0.22494338745186    0.31443140788608   -0.85270213743096
N         2.85073454778172    1.22543871160599   -1.36600388561661
H         3.88538550987885   -1.07492895184901   -1.57393255328724
H         4.36496039557971   -1.54961021684497   -3.13384854507827
H         2.71586805852564   -2.08653992383212   -2.48899094489270
H         2.32813762753053   -0.36860542685957   -4.16001316903832
H         5.59258393539237    2.89055357447239   -1.90950380471835
H         4.18574405381327    3.17130234733606   -0.88482540729394
H         5.65105188728714    4.52807935559383   -3.60385294692684
H         2.39942599256344    4.25867722945896   -4.18585193527863
H         1.62301977432502    3.33154288150617   -1.55610352694210
H         0.04475147291091    3.91917319593183   -4.03524734206146
H         0.55211789794414    5.04835818437466   -2.65916104293283
H        -1.65791575178350    4.10490205688390   -2.52425735392296
H         0.99205400104023    1.60634574394892   -4.01668163444279
H        -0.01288112250391    1.46221710076521   -2.58058213529312
H         1.56175262749600   -0.90542962181669   -0.61873244407855
H         0.55585023011610   -1.13809601314528   -2.11592163078421
H        -0.02933014499048    0.99935651545436   -0.12674787324012
H        -0.95919395067367   -0.34547605270534   -0.59118093354304
H         2.67322469275291    1.68138755239772   -0.47333687747316
