35
 energy: -49.730016593312 gnorm: 0.096177753075 xtb: 6.4.1 (79825abcba525fcdf90b791dcacef51065a7a4e7)
C         3.41112474684604   -1.48569719112261   -2.28095851656488
C         3.05016289099740   -0.19930177825020   -3.00922895794227
N         4.15789747635137    0.80010104062398   -3.00955825534341
C         3.84856209359846    1.72110826411615   -2.14302161807037
C         4.40129384170760    3.10846079023168   -2.05998228004342
C         3.81154104078986    3.82003039012746   -3.28357638490143
N         4.51589552102136    4.41659998513465   -4.19332046464263
N         2.44062913807623    3.79576696508518   -3.47856788665464
C         1.36196717381185    3.14290114399026   -2.71165096543667
C         0.08890049775779    4.02825156324853   -2.72101566218923
O        -0.84064633855665    3.59754233423184   -1.72659211392093
C         1.19722098724937    1.66760875039718   -3.13901801347319
C         1.92748346168772    0.61057104928990   -2.26189787510616
C         0.88541744511321   -0.26039170866953   -1.49390120122204
N        -0.19362641042359    0.62253982193428   -1.02422231133775
N         2.79858586793967    1.34620938143725   -1.32404190816269
H         3.56611203237145   -1.40717676783519   -1.19832692355155
H         4.36757316480366   -1.85648348532392   -2.66418955740304
H         2.58822496805146   -2.19508039373080   -2.39031616803887
H         2.82927500013522   -0.43657256956146   -4.05881246392789
H         5.49054209667458    3.14005399604800   -2.14487782012811
H         4.05234056349622    3.57430557987195   -1.13629713441628
H         5.51782081338524    4.52538241237132   -3.99205036171445
H         2.09674635183993    4.04937202384874   -4.40772594688547
H         1.59929446007940    3.21081519996049   -1.64131301186486
H        -0.29084625312588    4.11965515581754   -3.74378903774625
H         0.32860292307130    5.07411749333546   -2.49161093195799
H        -1.12300433152512    2.69304679502545   -1.96117481539188
H         1.52212025697727    1.47913858916276   -4.17100138405210
H         0.12080163713041    1.47906229193852   -3.02858025707778
H         1.51796989198087   -0.64375589362939   -0.69368080664685
H         0.51767904976340   -1.05005013005764   -2.16090102731202
H        -0.05983196478312    0.86376496643672   -0.04529125309962
H        -1.11201813858914    0.18255395960579   -1.10145029754117
H         2.40288292995279    2.07066828872595   -0.72836416914217
