35
 energy: -49.728758239089 gnorm: 0.118031746420 xtb: 6.4.1 (79825abcba525fcdf90b791dcacef51065a7a4e7)
C         3.68944959839931   -1.29676880622998   -2.89517383200019
C         2.95348918516207   -0.02435020396538   -3.28861709171565
N         3.87181338365446    1.12871923224201   -3.05841383637606
C         3.63642807346857    1.62507060203676   -1.87813527525272
C         4.12137266710679    3.01131644534726   -1.59475196195814
C         3.61164997348898    3.87931368668338   -2.75150850598168
N         4.09359176750397    5.00455733681254   -3.17718867430678
N         2.42274409915382    3.50922533934789   -3.35776525983597
C         1.21566933852673    2.95290149032293   -2.71637516656275
C         0.08740013599717    3.92803098016819   -3.14153737546181
O         0.26128321405057    5.14108271798392   -2.40892826218926
C         0.93814339600504    1.48793056696002   -3.12024526063863
C         1.77136179933533    0.42250611591669   -2.35176007192141
C         0.93932422483005   -0.75235692441436   -1.75033938452228
N         0.25013387793263   -0.25793112226616   -0.54823216853278
N         2.57772919204816    0.99064122623092   -1.25332889503608
H         4.14315895660451   -1.21762354650061   -1.90010523019351
H         4.49732870982427   -1.59491804878272   -3.57162075898315
H         3.01424508650612   -2.15475776271329   -2.87781064785491
H         2.53798145428476    0.08056312261142   -4.30008183808514
H         5.20386117119015    2.89108576093426   -1.68656892832196
H         3.87128765423147    3.35033752566321   -0.58752995837563
H         5.04762396550896    5.20278799983156   -2.85050117054374
H         2.18539570441221    4.09846758131479   -4.15924196582267
H         1.31894114212621    3.06087158011881   -1.62814850462233
H        -0.84373250847842    3.45088452815996   -2.81912326948928
H         0.04074102237637    4.04948159572614   -4.23102899919059
H         1.15570210566824    5.51358140206365   -2.52778463007334
H         0.98465372939581    1.39508405852563   -4.21353685306245
H        -0.10918257420383    1.34121780149388   -2.82358292153098
H         1.63642210851360   -1.51608603598759   -1.40651422445931
H         0.33867955954060   -1.18276601194675   -2.56129851050230
H        -0.16127657793659   -1.03290341306314   -0.03388216837230
H        -0.57715498296820    0.27276755955174   -0.82562563189861
H         2.06358481824864    1.57515467118047   -0.59739210239648
