35
 energy: -49.732781456160 gnorm: 0.104484915374 xtb: 6.4.1 (79825abcba525fcdf90b791dcacef51065a7a4e7)
C         3.64239304518930   -1.42172960880645   -2.77487476031405
C         3.11166217762664   -0.04579415865396   -3.14985580579046
N         4.12665661929441    1.03673326019343   -2.99557473375121
C         3.79884375018226    1.69755454153597   -1.92287609715774
C         4.25276541052985    3.08980679152525   -1.61833754731135
C         3.66664558915380    3.76828109020142   -2.86230633662761
N         4.33086870446526    4.42030061780431   -3.76415054654903
N         2.29192046055012    3.81545044609123   -3.02328982189413
C         1.18670889513232    3.04601853516889   -2.41964351480519
C        -0.08938982511110    3.78805708492052   -2.89459894912634
O        -0.27803688982873    5.14261584866880   -2.48468580281806
C         1.10048256796596    1.60973672644847   -2.98172097658797
C         1.91069515428563    0.48151485476650   -2.28127641269522
C         1.04625624208356   -0.64597186322961   -1.63643879536640
N        -0.27255486173434   -0.17469201332918   -1.18573433139855
N         2.68812433090400    1.20897779372915   -1.25855530805863
H         4.00647491187565   -1.42280031517297   -1.74060162468885
H         4.55823345418246   -1.63097100956511   -3.33754380380802
H         2.89218643010504   -2.19087527691185   -2.96968911435890
H         2.82440053457829    0.04541148559427   -4.20620644900189
H         5.33894118275953    3.16609808248141   -1.71356866582301
H         3.85060623418652    3.49015267079418   -0.68561831722583
H         5.33001799248003    4.38601810892378   -3.52598468713093
H         2.09543776890076    4.22387791697036   -3.94007067811073
H         1.15904130696776    3.09067507155889   -1.32246524764026
H        -0.93312830372535    3.18623416688983   -2.54169365472069
H        -0.07985092546074    3.73903270652115   -3.99069426749875
H         0.43132278253233    5.63634499889761   -2.93845627580682
H         1.57845061793294    1.74296631132675   -3.96144880873343
H         0.07690093536522    1.23977367738048   -3.12948032165300
H         1.67285232035319   -1.16962545971087   -0.91490736539631
H         0.84349405325660   -1.41709854738769   -2.39005131209587
H        -0.21006665734936    0.43955639272652   -0.37753222110323
H        -0.97392489606545   -0.89570171315363   -1.00904205218955
H         2.23254346304421    1.75569072421914   -0.53067859319979
