35
 energy: -49.719316663718 gnorm: 0.111975870019 xtb: 6.4.1 (79825abcba525fcdf90b791dcacef51065a7a4e7)
C         3.81660310720772   -1.25215329768692   -2.73046721762163
C         3.03473792145569    0.01070130854325   -3.06117783030067
N         3.92717848765416    1.19679282980688   -2.91078253013522
C         3.57635545312699    1.77299038208757   -1.79734280886541
C         3.96462098994143    3.18966481652181   -1.51549466708845
C         3.63715912013130    3.83887421591979   -2.86553840022794
N         4.40012282093675    4.52190137020096   -3.65989670108605
N         2.40850401260229    3.48965504707013   -3.40076027310652
C         1.20593498323745    2.95597326425079   -2.73224067926864
C         0.03532278273386    3.91221179223851   -3.07851624195676
O         0.35591196796736    5.29320699263215   -2.90963528328581
C         0.88647457355128    1.45851984099424   -2.93681292704241
C         1.79124933592025    0.43321411192071   -2.19513748488234
C         0.99424654969803   -0.79575434272776   -1.65781110203916
N        -0.12047083102901   -0.37258673020450   -0.79593158443172
N         2.54190377679854    1.13587952404641   -1.13573379973760
H         4.89058256097958   -1.17476878355822   -2.93748761877036
H         3.51682328244485   -2.19918587151676   -3.19133968906612
H         3.70737693689084   -1.36849316152155   -1.65024393155355
H         2.77950597706910    0.02796425889181   -4.12948165676634
H         5.00642387597768    3.30697627147317   -1.20637995218528
H         3.41920882557491    3.66638419410291   -0.69864816421078
H         5.29440450557487    4.95337593732156   -3.39477875647063
H         2.36382266290202    3.64584243618747   -4.41047046290905
H         1.26415666649962    3.06412690710678   -1.64069456736868
H        -0.81176748635893    3.73987347868087   -2.40667908085249
H        -0.46949545225176    3.67880164036592   -4.02434792304030
H         1.25414432519323    5.44889161356498   -3.25864558475704
H         1.00822908952076    1.15028554419510   -3.98382661809485
H        -0.18338214194632    1.30116349064081   -2.74427605419300
H         1.64718732660066   -1.39248298194366   -1.02139407600852
H         0.64576347890182   -1.43779374440232   -2.47636205185169
H        -0.46217544696001   -1.16393160990576   -0.25610960136935
H        -0.83412360293449    0.27336469911265   -1.13716691769296
H         2.10233663897793    1.38325286460940   -0.25151627142492
