35
 energy: -49.720890292353 gnorm: 0.111254532092 xtb: 6.4.1 (79825abcba525fcdf90b791dcacef51065a7a4e7)
C         3.67639578536666   -1.42981400862324   -2.71326848003982
C         2.96708102283280   -0.14173191889899   -3.10467816136584
N         3.99957894533993    0.93470323832568   -3.07125061915673
C         3.77730068131809    1.62437461478231   -1.98968962187587
C         4.31422205832173    2.96641427601657   -1.60524204979262
C         3.73342704005230    3.86661536435178   -2.70234611739250
N         4.13523160981268    4.93919952652638   -3.30877922004168
N         2.45615584238624    3.55832825550074   -3.14000715940611
C         1.21396653812458    2.98833810423560   -2.58324516402702
C         0.00296887438171    3.84474276624211   -3.03566921893390
O         0.14272626181247    5.24675434504503   -2.80485033971970
C         1.03535500229783    1.50724713205313   -2.98416782486823
C         1.84733062642441    0.45558225953095   -2.17506445176680
C         0.93486253577013   -0.69686267360950   -1.65202601070785
N        -0.37769653821568   -0.19476408308983   -1.21660936577361
N         2.71821985455009    1.17274364253238   -1.22281005503970
H         4.33978875503141   -1.81937623007517   -3.49456786067221
H         3.07382356501790   -2.28792180992263   -2.39751573615758
H         4.34613012480540   -1.19318966984965   -1.88392385623448
H         2.55617925482539   -0.20297693700985   -4.12159664850295
H         5.40655147000544    2.97620044363592   -1.64249557962751
H         3.86284795432950    3.15689002909104   -0.62956053925995
H         5.12737307815340    5.17251172021639   -3.17680085288298
H         2.16109280228733    4.16791878047071   -3.90632484711673
H         1.22470083930215    2.99528528094542   -1.48488438923840
H        -0.93665417855816    3.52833056378085   -2.57132083557961
H        -0.12521338472081    3.74550666969226   -4.12086082935250
H         0.56060287930313    5.61074393575742   -3.60844101332921
H         1.34967036218332    1.43590331563744   -4.03401835191546
H        -0.01889064921661    1.19911759944090   -2.99103514855673
H         1.48132079771254   -1.04574558768770   -0.77617930933880
H         0.71175159620787   -1.44622800305683   -2.42167126329305
H        -0.30842298395600    0.32040155295220   -0.34242284150359
H        -1.10117575289201   -0.89749456548970   -1.05616380563709
H         2.38863522681234    1.75730502690263   -0.45735892029846
