35
 energy: -49.733108013082 gnorm: 0.098317537457 xtb: 6.4.1 (79825abcba525fcdf90b791dcacef51065a7a4e7)
C         3.73046080298527   -1.41621341938784   -2.53573519864433
C         3.07111119974618   -0.18864835046319   -3.14714877095071
N         4.04948811227903    0.92763547392920   -2.99691211328549
C         3.70174458585710    1.66317321935569   -1.98060158397315
C         4.15344172516760    3.06491456347306   -1.71936252912031
C         3.65129276536659    3.92240379282465   -2.88721561364110
N         4.35921906202498    4.83403544473264   -3.47663302752478
N         2.35615877556988    3.68836531125669   -3.31833480558431
C         1.22100771064364    2.93568560983530   -2.75016909601020
C        -0.07855140712776    3.75278128824675   -2.96956046961127
O        -0.01800055483578    5.06837056687133   -2.41819453356587
C         1.03898771355132    1.46003674105545   -3.16921641002449
C         1.85631574553669    0.41815557510799   -2.35287688668975
C         0.89413028813239   -0.62501310131628   -1.70457539310491
N         0.04683538230527   -0.05110443050265   -0.64758809055146
N         2.60454845751739    1.15047112830444   -1.31200288145889
H         4.76771746066118   -1.37985889846916   -2.88936588429295
H         3.28868840933354   -2.35920774307912   -2.87446951758952
H         3.80436423474497   -1.38437745261599   -1.44675750295764
H         2.89807428699257   -0.37025353999705   -4.21663098276480
H         5.22876566616554    3.24758322082466   -1.78991556263736
H         3.76615799601836    3.28738969840540   -0.72312454339949
H         5.27840814227454    5.00435625164206   -3.04969062130085
H         2.08862755085651    4.23887696860300   -4.13764521309483
H         1.30332466958391    2.99772558126056   -1.65658103296194
H        -0.90076831145542    3.23562065512900   -2.46445470224650
H        -0.27271234577736    3.72521178941625   -4.04912555898773
H         0.61218850194877    5.62730825431210   -2.91146694686757
H         1.42458974491033    1.32400427763349   -4.18846930284659
H        -0.03188074621440    1.21738600184802   -3.19725608467133
H         1.40724502757636   -1.47906460326103   -1.26326750136325
H         0.29146839185990   -1.00075325010178   -2.54081620314660
H        -0.55795726294166   -0.82217526375918   -0.37542606616227
H        -0.65462008201677    0.60457995409338   -0.99548650171506
H         2.09345405725866    1.67781594248527   -0.60706072320549
