35
 energy: -49.718707096666 gnorm: 0.100067135467 xtb: 6.4.1 (79825abcba525fcdf90b791dcacef51065a7a4e7)
C         3.48138600023849   -1.61787633093660   -2.88052240633590
C         3.00549092175363   -0.22165256761984   -3.25410993736779
N         4.02124950680850    0.87083132070038   -3.27851337520237
C         3.85058204627632    1.54090605362474   -2.17547172810985
C         4.39404580861218    2.91127940115916   -1.92272893734015
C         3.53955000060425    3.98630152535432   -2.60499467639482
N         3.80629832727804    5.24113454435611   -2.42091792253507
N         2.45350283682155    3.64161659679772   -3.39220733614672
C         1.25280129533544    2.97078018913468   -2.85722932277402
C        -0.07772892108030    3.72206424699944   -3.12160333135050
O        -0.18491394878960    5.12077528947319   -2.85596294187978
C         1.18927518027392    1.46536487687224   -3.19775974789657
C         1.92830670203438    0.42541656848000   -2.30765193532387
C         0.95365195948089   -0.52559022983028   -1.54611991143340
N         0.20341701683149    0.23597465708124   -0.53534371529479
N         2.87455275987181    1.02161455057120   -1.34394893321215
H         4.16243512186692   -1.66997298459435   -2.02277200862165
H         4.06475007245374   -2.01612099299935   -3.71731966752857
H         2.65066303658081   -2.31525448492328   -2.75438452799514
H         2.59356080368053   -0.32723542280549   -4.26696744542206
H         5.32946643949374    2.95263847679515   -2.48659488512569
H         4.63992781136138    3.19655196302832   -0.89796770721521
H         4.63166851560893    5.41937004545915   -1.83509053753478
H         2.25218986382279    4.51718263011694   -3.88084099783266
H         1.29642778059324    3.11372252482629   -1.76900866224651
H        -0.82868822068390    3.10475558173348   -2.61799854092262
H        -0.34814632945555    3.67027848232435   -4.18372951910589
H         0.22810915253342    5.43226372765307   -2.02816215470172
H         1.58912721435341    1.40349895654860   -4.21872070224365
H         0.13310969842349    1.16391740947260   -3.18946089982410
H         1.55175208842763   -1.23612076982028   -0.97614972171349
H         0.22887445427659   -1.01826265462179   -2.20615947871693
H         0.14969423262043   -0.31174271879538    0.31994342520256
H        -0.78464358975950    0.41299921307547   -0.72347571227738
H         2.43123433360145    1.67641177518071   -0.70288506454007
