35
 energy: -49.716368409277 gnorm: 0.130849449292 xtb: 6.4.1 (79825abcba525fcdf90b791dcacef51065a7a4e7)
C         3.68276081843758   -1.37029140485067   -2.90865284875389
C         3.00246992041858   -0.01954902312231   -3.07653300352995
N         3.98105355021443    1.08902968054769   -2.87826714950302
C         3.62601916275773    1.70181328298716   -1.78589574641076
C         4.30701661544813    3.02587753455899   -1.64358874049245
C         3.74902035477658    3.81177840150532   -2.83620023706492
N         4.37997932573526    4.79892697614900   -3.39034216316416
N         2.46850342628307    3.61470848182641   -3.32553618269415
C         1.26527801914424    3.04467749881604   -2.68896705596388
C         0.03008103758073    3.82084046031726   -3.21479145596402
O        -0.07284210905896    5.20637966625386   -2.88595428745105
C         0.94901771749482    1.54233175215671   -2.85987112584760
C         1.83429068423143    0.47926347877707   -2.14844347064368
C         0.91307992388252   -0.70958622872554   -1.73334869672316
N        -0.14495094376502   -0.31830015710881   -0.78890819178416
N         2.55530578396863    1.19077724804487   -1.07445914764262
H         4.59613996974685   -1.45159214416990   -3.50982370156487
H         3.05077140773993   -2.17006201301416   -3.30877587753528
H         3.83917706776085   -1.67842250554374   -1.87282620138555
H         2.59342754275732    0.06992244274486   -4.09210851366631
H         5.39476100895042    2.91958313017664   -1.63014382745206
H         3.90756295462276    3.46175289416313   -0.72575245165451
H         5.35697743763952    5.01247547318001   -3.15355262169196
H         2.08753212573335    4.15791836424304   -4.10379673063267
H         1.34945396343447    3.16569622056879   -1.60046865705767
H        -0.80241725712406    3.23322362289888   -2.81444081055982
H         0.06416877550866    3.59840379561830   -4.28869987249851
H         0.86080203715521    5.47496029210344   -2.79087370673049
H         0.91891070681136    1.27448727382808   -3.92449458595244
H        -0.09736514947904    1.47256841916081   -2.53331202528954
H         1.53349596333986   -1.50549431553229   -1.32218252950628
H         0.41315756268078   -1.07633307294600   -2.63847581208109
H         0.21872870751709   -0.39784395011615    0.15756232281759
H        -0.92826536110579   -0.97344491049440   -0.77480287998739
H         1.95742577796958    1.84200570197012   -0.56978648946189
