35
 energy: -49.709158344304 gnorm: 0.127019407766 xtb: 6.4.1 (79825abcba525fcdf90b791dcacef51065a7a4e7)
C         3.64550214846939   -1.43366090399086   -2.51610931316334
C         3.06231261476425   -0.17622145248844   -3.14397909700551
N         4.11518104509345    0.88003345071655   -3.10304421321646
C         3.89711908022387    1.56173306808835   -2.01558707261506
C         4.45631609341121    2.93308219367763   -1.80617071611507
C         3.57988107841721    3.87797293418280   -2.63705297420895
N         4.14914300451555    4.97699984414534   -3.02140374252979
N         2.30232226936057    3.62720509237430   -3.10924868915557
C         1.16734188439955    2.80081563984719   -2.65448835089486
C        -0.07155341954848    3.64760401550019   -3.04528204119748
O        -0.03086020737398    5.04844376594944   -2.77244874236575
C         1.13619003402341    1.35179152993132   -3.18893222155967
C         1.88809192530287    0.36655761067950   -2.24876765673105
C         0.84180958898760   -0.55821462032846   -1.55278907947642
N        -0.33575039806542    0.29700535317155   -1.33725888250755
N         2.73455336810068    1.19112227501840   -1.36380828087056
H         4.50060750345979   -1.83798663419976   -3.07072018786957
H         2.84279758072791   -2.16352289269924   -2.36741855631531
H         3.95667659638421   -1.08425336300756   -1.52948247932295
H         2.66799742229667   -0.33894670710760   -4.15627868438287
H         5.49764886960702    3.11453810234743   -2.08431984050244
H         4.25266066369009    3.10211676651622   -0.74696073537108
H         5.16393418174926    5.04991800550445   -2.87621638383469
H         2.04017762566540    4.18358002000055   -3.92633663849339
H         1.27099240746875    2.87593413905710   -1.56353753815577
H        -0.85162758773580    3.34698953746225   -2.33835713140561
H        -0.37226993416910    3.41808984874351   -4.07523939613912
H         0.38632170890358    5.53950316070102   -3.50572030111742
H         1.62511899784872    1.47302140167351   -4.16480209610773
H         0.05762497957650    1.15999813471194   -3.26854127969514
H         1.24719808831741   -0.92877093198731   -0.61162408195835
H         0.69149667282323   -1.37509427801900   -2.26958359036196
H        -0.03255956162268    1.04966409957896   -0.72408951738784
H        -1.02552017406965   -0.25420022492134   -0.82404824780199
H         2.45566908660045    1.50931483500858   -0.43794083457218
