35
 energy: -49.724670233705 gnorm: 0.103212539991 xtb: 6.4.1 (79825abcba525fcdf90b791dcacef51065a7a4e7)
C         3.25913556491093   -1.38536578913091   -3.00476595595287
C         2.90657741569102    0.08938037743903   -3.13248019633521
N         4.12662629229268    0.92686042891644   -2.94277016224040
C         3.85354787262433    1.70749715884323   -1.93735339015386
C         4.47405185649104    3.06104685526189   -1.79581559440560
C         3.92188016930763    3.76198711889284   -3.04285663508240
N         4.63995536188588    4.40421696927173   -3.90977857036242
N         2.58301531197116    3.67416676237138   -3.38598680133855
C         1.41262845258918    3.22376269903787   -2.60801653621733
C         0.19877250852890    4.10772838617822   -2.99504397764572
O        -0.99849094989898    3.79108781040644   -2.28458995955080
C         0.99864971105838    1.75843589751457   -2.86822892242634
C         1.82746460336968    0.66119986632743   -2.14084275738990
C         1.03026545029490   -0.43572490264740   -1.36913938140954
N        -0.14201043065204    0.16645292207616   -0.71518747341914
N         2.76088640791971    1.30094537256705   -1.19268329956377
H         3.52832996315603   -1.53752037226921   -1.95278637407863
H         4.02816173689350   -1.72359780369036   -3.70714756582044
H         2.39885114211068   -2.02484730595634   -3.21290476810544
H         2.72740779682338    0.30259465712591   -4.19509599492945
H         5.55547633775270    3.09832375467587   -1.95008375416762
H         4.33960222787061    3.61453273046468   -0.86439159470845
H         5.66420099630662    4.32083242796880   -3.89691551451344
H         2.40296370652292    3.76093750533470   -4.38896130104413
H         1.51601055265339    3.35657397391014   -1.52255203526515
H         0.08825302078371    4.02748860966285   -4.08131034263051
H         0.30875652979506    5.17865922596769   -2.78307705080921
H        -1.60662745698719    3.36226578010768   -2.91637229183959
H         0.92067508236612    1.43531290347790   -3.91492930184442
H        -0.02696421350189    1.70903563184683   -2.47822820128478
H         1.69075679124644   -0.86887222781445   -0.61842109974567
H         0.64204762872639   -1.21089424723388   -2.04150841151748
H         0.21934032706913    0.61883185730283    0.12097965624172
H        -0.80345191501167   -0.56283241925552   -0.44383320609334
H         2.39998500735523    1.83242044888308   -0.40303914290739
