35
 energy: -49.718806068680 gnorm: 0.113947568729 xtb: 6.4.1 (79825abcba525fcdf90b791dcacef51065a7a4e7)
C         3.55788764761593   -1.31595234782465   -2.85073721978938
C         2.89438760104420   -0.00039180411181   -3.23093796360368
N         3.93102710887647    1.05939927714205   -3.06329724466490
C         3.68057079650659    1.66845328078099   -1.94028642755116
C         4.26721286754401    2.99068893698529   -1.55989332110134
C         3.62471308903226    3.86534252526055   -2.64317413748115
N         4.24572190293815    4.82495307814136   -3.25402636798057
N         2.36289498772048    3.58176596871230   -3.13856210183266
C         1.06866081380354    3.04912872707993   -2.67041425560943
C        -0.03337048647923    3.90439483492012   -3.34767248838451
O         0.31790411496602    5.28824635672800   -3.34501251623208
C         0.84666960242136    1.53029710711444   -2.84402854136535
C         1.76598598282905    0.43796769405619   -2.22627007067003
C         0.94952393081367   -0.76805852955536   -1.66663891749471
N         0.11602002546252   -0.37601500909782   -0.51943575684467
N         2.60070649542629    1.15672739628805   -1.24332393320220
H         4.53481256101526   -1.27203428603050   -3.34668742467767
H         2.86001969881851   -2.15284589027583   -2.95904976785706
H         3.80418076853471   -1.34493196856845   -1.78732405831865
H         2.62491973190197    0.01280687518960   -4.29579818313133
H         5.34564749011632    2.99894419134081   -1.73759464861783
H         4.03529186675124    3.28431878634808   -0.53423832927405
H         5.20862545065350    5.00688922581248   -2.94432722579984
H         2.37016570521652    3.85428578047157   -4.12425256017047
H         0.98996284528258    3.11516974040512   -1.57679407933203
H        -0.86209054469942    3.74524231339829   -2.65016181485475
H        -0.14861481242537    3.51371299262220   -4.36649817065908
H         1.28026193627647    5.43220636070395   -3.42253800175470
H         0.77599912703530    1.19076955593672   -3.88604434154808
H        -0.13408516416340    1.44116389579442   -2.35761283361527
H         1.70261614291341   -1.49245066327837   -1.35752482815167
H         0.36536648195793   -1.28336398288224   -2.43923264672471
H         0.64015700100667   -0.12832059448730    0.31622233425956
H        -0.50871764488401   -1.12248204215762   -0.21042945323507
H         2.02164915595551    1.64833799445743   -0.56563292065819
