35
 energy: -49.715283238849 gnorm: 0.112473733888 xtb: 6.4.1 (79825abcba525fcdf90b791dcacef51065a7a4e7)
C         3.50469711070218   -1.54479901787731   -2.51948790613152
C         3.14503958280773   -0.15157538974468   -3.01452207366435
N         4.13548893446738    0.96119043831867   -2.93300955070352
C         3.76446585897897    1.72719624698592   -1.94791797801266
C         4.23536617941501    3.10916014054943   -1.62298161952637
C         3.72456528393884    3.87544742788988   -2.84903562602995
N         4.46069404304646    4.58204470430671   -3.64808477475178
N         2.39139972332522    3.81089976825179   -3.21851230481416
C         1.26768926506359    3.03876605077310   -2.65371916835259
C        -0.07956298825998    3.68434946865337   -3.06936953528942
O        -0.41926873537101    4.87247485008057   -2.35424435007247
C         1.29616234851059    1.57354501241193   -3.14217398383647
C         1.90689954649087    0.45165385284797   -2.25430464226206
C         0.90129288085004   -0.49258956820313   -1.52529426674897
N        -0.33353222886691    0.14026034098920   -1.03620337658122
N         2.74729665236291    1.11497392315697   -1.23779289197477
H         4.43241436048073   -1.82480956050321   -3.03253028645642
H         2.79491847901126   -2.17904377454665   -3.06086574834553
H         3.54919708462767   -1.68171668048471   -1.43707348971910
H         3.01515082062733   -0.35516306038136   -4.08615418659848
H         5.31604322813242    3.13725022420543   -1.78427394709177
H         3.89092351938780    3.40479160604246   -0.63003888125314
H         5.48319736092759    4.58425926347724   -3.54474253885675
H         2.12495815426218    4.19066131006862   -4.12993737102997
H         1.29753510634499    3.10655839958683   -1.55778427151135
H        -0.87458093215780    2.95172736240393   -2.89663011010171
H        -0.07240829427650    3.88018627446473   -4.14896023445085
H         0.20897533659882    5.55967084083649   -2.64739672771637
H         1.83925535281253    1.63249059396660   -4.09487835391461
H         0.33941779712699    1.16171413719290   -3.49068518099060
H         1.43988725769693   -0.88426131712254   -0.66276734107043
H         0.80717008480079   -1.37452609069146   -2.17105704816334
H        -0.99790585073211   -0.51207652111497   -0.62698357932809
H        -0.70672427246456    0.63237114095995   -1.84956045932587
H         2.32374112863340    1.68325822367937   -0.50710338207776
