35
 energy: -49.720145329431 gnorm: 0.118672688505 xtb: 6.4.1 (79825abcba525fcdf90b791dcacef51065a7a4e7)
C         3.61927857778798   -1.50138477225381   -2.84048259713276
C         3.08470271544381   -0.14407011104960   -3.27339136112802
N         4.07742913421689    0.96905858253464   -3.23704896376684
C         3.80814287798907    1.61220168039185   -2.13764899412801
C         4.21603204641339    2.98013329348327   -1.69094497746828
C         3.55190582897282    3.89060653930858   -2.73079931207273
N         4.16684993669514    4.95016145413600   -3.15368457700324
N         2.27105380520464    3.75255059382889   -3.23909892767200
C         1.18611637113929    2.92023694593811   -2.68405681899747
C        -0.09675152591760    3.71607803951427   -3.03834308921104
O         0.01438752105085    5.01894388239629   -2.46507641993313
C         1.10153121243877    1.47612601822642   -3.22596135384932
C         1.90248957278795    0.42490637197920   -2.40537945964373
C         1.01378312449914   -0.53710920024720   -1.55742696265681
N         0.08195562194493    0.26421692367539   -0.74867735895951
N         2.81323344851231    1.00064569204695   -1.39610903616218
H         3.74685765656775   -1.43298067909715   -1.75359615291536
H         4.52945191788214   -1.79568168256521   -3.37350782864986
H         2.77674891255518   -2.18065272247209   -2.98569445518440
H         2.93413568613018   -0.24320103912603   -4.35700432136526
H         5.29662076279568    3.05307882955884   -1.83816631996319
H         3.86074252476579    3.23743618102463   -0.69117571292218
H         5.13311150649526    5.03672815785811   -2.81450564108656
H         1.90485644453383    4.54509260740737   -3.77171722289741
H         1.20212279464294    2.90282256080497   -1.58587631319360
H        -0.98669197556317    3.19696238581250   -2.66800198938145
H        -0.11810881964876    3.89959897552468   -4.11990828236965
H         0.12097078686805    4.92862373585301   -1.49897624890336
H         1.34684903761983    1.49477253111971   -4.29626115973420
H         0.08001670718057    1.08583400184526   -3.12298011540772
H         1.63450925939200   -1.10552807425189   -0.86529806690331
H         0.46624864072233   -1.36329443476977   -2.02785723513644
H        -0.37865221361901   -0.34762238418080   -0.07943179816238
H        -0.56206769434652    0.85445453028205   -1.27768456029037
H         2.39701260493958    1.52807885520932   -0.63136858456720
