35
 energy: -49.724141663036 gnorm: 0.111291441927 xtb: 6.4.1 (79825abcba525fcdf90b791dcacef51065a7a4e7)
C         3.65320545526065   -1.36192695284640   -2.83944477686010
C         3.01609124377785   -0.02655762445409   -3.19491446150407
N         4.05226145716951    1.03434462238789   -3.03145276620960
C         3.70030406949959    1.68335686383244   -1.95919461478446
C         4.18006395226110    3.05815374384079   -1.61726047763465
C         3.59959272384798    3.89915298718217   -2.76054330985026
N         4.24400422022607    4.82289436064671   -3.40169891739463
N         2.29015313602921    3.65961590799381   -3.14264251996227
C         1.12844552118352    2.99041624851204   -2.52578417401253
C        -0.10947118426883    3.79650959598640   -2.99738526460400
O        -0.00338423972969    5.22029786873162   -3.00168298374376
C         1.01432349682317    1.53782046288513   -3.03882725538412
C         1.84114846081233    0.46615347461067   -2.27211867404334
C         0.99553838538079   -0.65961219443292   -1.59988967992442
N        -0.06650228346426   -0.17180514788019   -0.70623657412622
N         2.67460735626130    1.10406980218913   -1.23386726436882
H         3.80409154071367   -1.46780727485198   -1.75856530549135
H         4.62405214022327   -1.39780783382816   -3.34472822374203
H         3.00990098091012   -2.17409185979537   -3.18425659116826
H         2.90521811236686   -0.07050199872543   -4.28692657844708
H         5.26815725477864    3.11819398326113   -1.70161262918917
H         3.91665905298914    3.39599370910020   -0.61304136960102
H         5.24058323922202    4.71656355093878   -3.17427510786893
H         2.23912409497446    3.85396949790948   -4.14540287336825
H         1.10649515987382    3.04519402156848   -1.42893529361361
H        -0.91930806383239    3.51031992530054   -2.31849845595167
H        -0.21190744813621    3.35456670704980   -3.99644113588651
H         0.94041141939185    5.34043565728009   -3.22004948187690
H         1.39155743808577    1.70308366537702   -4.05689053821335
H        -0.04844380913028    1.26046868782423   -3.03367710663949
H         1.65325468691445   -1.42219546125359   -1.18357323228806
H         0.46308074880579   -1.13261094427878   -2.43442054334911
H         0.29750979526787    0.13486630221682    0.19256505320637
H        -0.63614929003168   -1.00746984680052   -0.56424401554701
H         2.27284077040527    1.79639063058774   -0.60495631944067
