35
 energy: -49.723061225330 gnorm: 0.099984017482 xtb: 6.4.1 (79825abcba525fcdf90b791dcacef51065a7a4e7)
C         3.50459269065364   -1.41329236125794   -2.74258836042135
C         2.97433767125180   -0.05271826371429   -3.17055117521040
N         3.93763782544569    1.06929903778880   -2.97303667010832
C         3.61126420787816    1.65606774155562   -1.85768418378849
C         4.09735021649108    3.04088283357376   -1.56930510758091
C         3.55464732466138    3.88786312815096   -2.72663832511032
N         4.09831968654782    5.04396042576502   -2.94459297387173
N         2.50629006018825    3.38422733622642   -3.47850793468357
C         1.25372713245810    2.99986468496823   -2.79934782047394
C         0.10680332338045    3.87984943137333   -3.36044001457242
O         0.44944524987988    5.26505797226667   -3.40776614957880
C         0.91432985842423    1.49559016313918   -2.89011769945342
C         1.81095674576573    0.41501661137617   -2.22051133585344
C         0.89415289756103   -0.73300281819163   -1.69532695690261
N         0.05854487209378   -0.26207290551685   -0.57976153656228
N         2.58116965198646    1.06958848934154   -1.14447013437474
H         4.53990749975256   -1.57691053417060   -3.06450452304961
H         2.82956652237308   -2.12885144312019   -3.22368809277003
H         3.46940817022154   -1.60961445763074   -1.66901146776753
H         2.80890617200471   -0.09664199912393   -4.25563989365491
H         5.18518758035662    3.08597309370127   -1.66545023466920
H         3.83130849450110    3.41611470021361   -0.57915519563227
H         4.80831922400249    5.25874985317204   -2.23328169957875
H         2.38335378301631    3.87361584827279   -4.36805341276141
H         1.40523967749596    3.30376352782550   -1.75471902162834
H        -0.81291990530094    3.80131395478178   -2.77173894220958
H        -0.10509752461289    3.38677646925015   -4.31746478719521
H         1.39934152319454    5.46996166193392   -3.31514430216425
H         0.74394038566577    1.19392146992437   -3.93224707180418
H        -0.08815453531034    1.39848211169334   -2.45191690809403
H         1.47340245308040   -1.65138027541038   -1.60315240908490
H         0.30017202304631   -0.92780221133150   -2.59694806954900
H         0.60460413425337    0.14468913762134    0.17572536436190
H        -0.45491981822484   -1.00590930437982   -0.10430753724811
H         2.01898229229232    1.55796479959012   -0.45043308182091
