35
 energy: -49.719890890340 gnorm: 0.106752000291 xtb: 6.4.1 (79825abcba525fcdf90b791dcacef51065a7a4e7)
C         3.60804798381602   -1.46895771415225   -2.58459815170309
C         3.00162449816695   -0.20498465311091   -3.17629663094471
N         4.07028376901011    0.83256124055231   -3.09057690126370
C         3.80805615516885    1.58280969051772   -2.05946472132769
C         4.38891231772086    2.94190999076141   -1.83010176276856
C         3.65539922595356    3.89023165475195   -2.78611782456698
N         4.10327937710500    5.06721972483731   -3.09229952274941
N         2.43945580663376    3.51540984343906   -3.33292676971346
C         1.25418953697572    2.90200368393032   -2.70301906988510
C        -0.00226862742659    3.70798627537001   -3.12294376745962
O        -0.26172730194820    4.91447841512559   -2.40495779574476
C         1.10384272088596    1.44824760985848   -3.20327964590414
C         1.83390892812606    0.40132291005029   -2.31395199017338
C         0.91618787782588   -0.57539712215590   -1.51513875662726
N        -0.09320908870346    0.32532551981324   -0.93693596715576
N         2.66899358364610    1.18530427725328   -1.38252096203762
H         4.44840816323045   -1.77824765713821   -3.21737945569780
H         2.90031704549715   -2.30082560139489   -2.50551077189661
H         3.99869689914144   -1.26806986927816   -1.58490561785918
H         2.89237510498827   -0.35975569131541   -4.25834325612504
H         5.46786672659927    2.91422390810667   -2.00260677731322
H         4.26477221492126    3.45371894641231   -0.87374680292733
H         5.07750276150503    5.23428503930099   -2.81091804504468
H         2.23025476785568    4.25872898452346   -4.00346176495039
H         1.37346743105057    2.89256966308587   -1.61111996385304
H        -0.88489395187032    3.06904788222243   -3.01637053890005
H         0.03111768166214    3.89379574237133   -4.20381356557073
H         0.43923365806340    5.59383066656056   -2.40373029399409
H         1.41162701013429    1.24136725045401   -4.23698151278176
H         0.04257795179837    1.16613416591243   -3.22681606891574
H         1.40956341535949   -1.09889843467676   -0.69662162094193
H         0.37107149821390   -1.22582888400380   -2.21045692735532
H        -0.15428242797462    0.15079600518473    0.06316704488678
H        -0.94880007221664    0.23386286238961   -1.48702117616471
H         2.25081489808115    1.70616855852433   -0.61435402130017
