35
 energy: -49.721371807025 gnorm: 0.118558786333 xtb: 6.4.1 (79825abcba525fcdf90b791dcacef51065a7a4e7)
C         3.59708164219973   -1.42679172145844   -2.45956347881721
C         2.95781810162943   -0.20262637339020   -3.09850461429452
N         3.97254355529894    0.88881537093791   -3.16899698442832
C         3.76058857993505    1.61511782700373   -2.10956873228778
C         4.37560493574493    2.95915722946152   -1.88051009557576
C         3.63866482272721    3.92961722244154   -2.81134241917109
N         4.07835725165739    5.07991771837091   -3.21522869234645
N         2.40692036195370    3.58787546909316   -3.34428516588802
C         1.25953529915668    2.88001833420323   -2.74399127719838
C         0.09272178737319    3.81589570939131   -3.15302868870047
O         0.09599350310649    5.10525416425561   -2.53984843428943
C         0.99366878980578    1.41114368091325   -3.14147558935471
C         1.84862916251931    0.49039162107595   -2.22430053358562
C         0.93629455486169   -0.61807205267213   -1.61335833060889
N        -0.22480759903897   -0.18859516570800   -0.81844113792887
N         2.70570832656912    1.24985836924327   -1.29253743669202
H         4.58314977212068   -1.45964666365688   -2.93796486116715
H         2.98182297980053   -2.28507749434503   -2.74929506669105
H         3.63176839014387   -1.29229514076856   -1.37648676510819
H         2.67882648710550   -0.31065990869410   -4.15548467587615
H         5.44989885056445    2.96619273387493   -2.08178155605048
H         4.18856923385852    3.29539477134333   -0.85877825812488
H         4.93406767313489    5.31241741211793   -2.69570859477385
H         2.08581376519913    4.37141839769011   -3.91774539143008
H         1.26935072746389    3.00603151559007   -1.65285232383359
H        -0.80492060606882    3.27008274582414   -2.84488271534027
H         0.05709653758341    3.83644551451381   -4.24949021380211
H         0.94624305333807    5.57478362353642   -2.63723964649296
H         1.38421866124128    1.25564006660192   -4.15604920866093
H        -0.07554579074267    1.18873430265864   -3.02426164170227
H         1.54313489406158   -1.19120782939728   -0.91285598326815
H         0.58366192460580   -1.22486098459852   -2.45664838617618
H        -0.24421400299008   -0.68807309849539    0.06730245912377
H        -1.10306952071813   -0.05156585822265   -1.32130696842666
H         2.29885905626506    1.83176060958158   -0.56307399530677
