35
 energy: -49.720911113655 gnorm: 0.117793215879 xtb: 6.4.1 (79825abcba525fcdf90b791dcacef51065a7a4e7)
C         3.60277355998838   -1.47896734144532   -2.59416919436365
C         2.99039763332220   -0.22971195287276   -3.21048175516835
N         4.02114891960983    0.83887146142751   -3.35732622834658
C         3.85575016372318    1.56479894979284   -2.28938382636168
C         4.50072565430480    2.88494461965217   -2.00942492544981
C         3.67230760363332    3.95008804367340   -2.73778968708528
N         4.12557984207922    5.14765494083548   -2.93784626569115
N         2.33230753997425    3.83775937772481   -3.06913838500320
C         1.19126940659327    3.02548460958459   -2.60422046425413
C        -0.11932018489995    3.70812268628490   -3.07431836258243
O        -0.17033911860502    5.05620570299493   -2.60686225304376
C         1.09283886010240    1.56031444277941   -3.08365698017333
C         1.87851963286443    0.44977346540705   -2.32910002841272
C         1.00974060254006   -0.59258087928422   -1.55902404341916
N        -0.14672341068027    0.06995371030709   -0.93601449558483
N         2.85687862816580    1.11389983587507   -1.44518440461032
H         3.82421878146773   -1.12490851555364   -1.58032401289595
H         4.57200648216144   -1.65327839480139   -3.07306927514347
H         3.02409137762059   -2.40383336777537   -2.63996697607729
H         2.66394471773272   -0.58702543092388   -4.19662069465369
H         5.57631943332255    2.94134156173408   -2.19539413539752
H         4.39367513051384    3.02468313252183   -0.93193369466157
H         5.09800082756485    5.23320198453442   -2.61647933847267
H         1.96491092962836    4.72285820964925   -3.42624537132108
H         1.25445429799480    3.11625531244443   -1.51136720326582
H        -0.98521879841214    3.15924644054525   -2.69015425981197
H        -0.11709461109625    3.69825100915958   -4.17150427816711
H        -0.07339023132510    5.11516686486516   -1.63733053323899
H         1.52526673522444    1.45771167653478   -4.08792240073839
H         0.04238073644897    1.26947729554463   -3.21921643650570
H         1.53724705089632   -1.01051642527021   -0.70198833937438
H         0.71026688350841   -1.28629298414201   -2.35448600380142
H        -0.40059186857663   -0.53516928086216   -0.15898585116483
H        -0.94682777713591   -0.00252749548787   -1.56654963857509
H         2.37089215623100    1.74681018925746   -0.81312812918671
