35
 energy: -49.722021366261 gnorm: 0.109656741879 xtb: 6.4.1 (79825abcba525fcdf90b791dcacef51065a7a4e7)
C         3.50912827092252   -1.41811451243639   -3.07404339398291
C         2.97434597210481   -0.01171421854851   -3.30104678646186
N         4.01863028452762    1.03300860551734   -3.09150802022618
C         3.65385092329935    1.64821216197412   -2.00371712700204
C         4.32949686089467    2.94587138324312   -1.69268970584975
C         3.63482632888171    3.96822506991992   -2.60018516545180
N         4.11242416068624    5.13821690824805   -2.88769902895496
N         2.48246053018202    3.48840685428410   -3.20004965265463
C         1.21141797518020    3.02865910820133   -2.60760572277987
C         0.02612547383624    3.82025331664051   -3.21841839500191
O        -0.06047469378759    5.17098161824120   -2.76401833052259
C         0.91092653428540    1.53048872443982   -2.83445792013436
C         1.83458109102588    0.39964768657726   -2.29778999299924
C         1.02072067799818   -0.77288859014484   -1.66764203741856
N         0.04649915279088   -0.22949668693886   -0.70841337434078
N         2.66038844192045    1.04179766251881   -1.25604023020613
H         3.86668822419002   -1.51512631338165   -2.04204665511979
H         4.39350733833513   -1.45212718588858   -3.71891461007105
H         2.85360805353051   -2.21299441649110   -3.43571568318664
H         2.69162599827337    0.14238141840268   -4.35130311846694
H         5.32309623209470    2.96965244581651   -2.14751044679774
H         4.19446055600367    3.28842519854521   -0.66487839677569
H         4.99416170968809    5.32935223573131   -2.39555702902560
H         2.44367125338717    4.00416342336616   -4.08231727506503
H         1.31452542227044    3.22073216818092   -1.53102006637087
H        -0.98847183040719    3.43172095202097   -3.08327958697408
H         0.26547312516472    3.83540954940710   -4.28912018454595
H         0.73142627497006    5.71586669892123   -2.93390171033473
H         0.87102858638851    1.56893066820429   -3.93127174871833
H        -0.07218357086192    1.37254642819113   -2.37080543550381
H         1.78522883527444   -1.35457502384125   -1.15323798317267
H         0.56239187780230   -1.43567680481354   -2.41217356124165
H         0.39136489122381   -0.39248877397012    0.23440036116737
H        -0.89666688595974   -0.61086424794019   -0.79780962126065
H         2.12099346278949    1.50474037204840   -0.52734922253359
