35
 energy: -49.721826053020 gnorm: 0.114707907214 xtb: 6.4.1 (79825abcba525fcdf90b791dcacef51065a7a4e7)
C         3.54083630126841   -1.43482264212851   -2.56892865869827
C         2.87967350797589   -0.16489963266960   -3.08433503635463
N         3.99675382583831    0.80111428555145   -3.29606756029735
C         3.93614352511406    1.55782187617248   -2.23845306252488
C         4.55821521332123    2.91560713105340   -2.15720687277067
C         3.73474888947743    3.78746911756777   -3.11276015475388
N         4.17930646861311    4.86908328570607   -3.67144089028565
N         2.46674010784328    3.45452044496972   -3.55920024508735
C         1.32152398733472    3.01534256576907   -2.73852381814899
C         0.15477907344201    3.93519340088207   -3.18261003280361
O        -1.14623219941309    3.71716659461021   -2.63645994005691
C         0.99066711811822    1.51263282424373   -2.87515718741317
C         1.89604069753061    0.53327169135909   -2.07446867506587
C         1.03148693030980   -0.22636287360017   -1.02099887465619
N         0.02392714629176    0.55231651891088   -0.28412464182001
N         2.98495191529189    1.17358156150434   -1.31037931578994
H         3.80976176109724   -1.21132431874727   -1.52969563549475
H         4.43801078948950   -1.79621461096922   -3.08236400332365
H         2.83349296684396   -2.26565113828262   -2.52725039243748
H         2.45631841920576   -0.34373061989553   -4.08208467904346
H         5.59715628434128    2.80450625690151   -2.47802641651545
H         4.39388929602592    3.40177612899249   -1.19356238436818
H         5.13398467491660    5.06935427621471   -3.34790013499577
H         2.23687408523268    4.14434488525842   -4.27837300273390
H         1.49019604744436    3.26183081103260   -1.68147454789231
H        -0.00757734807379    3.70418377273174   -4.24039192898660
H         0.48671502256652    4.97427255274306   -3.06406735625784
H        -1.21427981771127    4.09386091356436   -1.73849659456029
H         1.04730480838982    1.26878953137181   -3.94445733984112
H        -0.07246389879128    1.43287926075387   -2.61092875620208
H         1.75188737952597   -0.62566762722954   -0.30754091734430
H         0.47483346367819   -0.93876407989711   -1.64253096931548
H         0.38510708091356    1.48766608810486   -0.11363483589133
H        -0.67826960940542    0.74755337527549   -0.99952478912796
H         2.64722751931257    1.81079755879168   -0.59194248421842
