35
 energy: -49.716964479232 gnorm: 0.125098809374 xtb: 6.4.1 (79825abcba525fcdf90b791dcacef51065a7a4e7)
C         3.65947717214256   -1.33583087506288   -2.75992893918799
C         3.11465375864114   -0.00416793664226   -3.25523258813567
N         4.11123793141581    1.09712569392159   -3.11432721717444
C         3.76030750804401    1.66050608094437   -1.99438132781222
C         4.19654925807467    3.03649120124633   -1.60257394757764
C         3.61739562391424    3.83564537334509   -2.77613939061870
N         4.38253905072558    4.39911017258669   -3.65744963519657
N         2.24949188381832    3.88200520707154   -2.98756297758532
C         1.15241401899492    3.02510046228530   -2.49762280880476
C        -0.14487407123413    3.78297374038881   -2.88142422887369
O        -0.21522686552039    5.02111772333238   -2.17396686900293
C         1.19857130167791    1.64359913671647   -3.18725684993259
C         1.90473114797880    0.50920328492602   -2.39074194589344
C         0.90737497511160   -0.59075592842634   -1.91150617771350
N         0.07544241874397   -0.08193911379746   -0.80991839884220
N         2.67272851715669    1.15280489306558   -1.30653073970866
H         3.97586852975534   -1.44868443978030   -1.71616734938205
H         4.56838872248324   -1.56854383846460   -3.32461163804329
H         2.88283040684874   -2.04341621782144   -3.05740238844443
H         2.85669380212011   -0.06619190445438   -4.32121762685792
H         5.27503393948163    3.21361802912588   -1.58976730557927
H         3.87662229578781    3.39281440901497   -0.62142436827369
H         5.38922997677684    4.35516907604001   -3.45536025528115
H         2.00075796167400    4.28410592940144   -3.89439925489798
H         1.10670432436590    2.96744507726596   -1.40165458521457
H        -0.98555315156498    3.26962678841477   -2.40355271274570
H        -0.45374732406222    3.68224410507985   -3.92945580014674
H         0.42084187050079    5.61236869700259   -2.61973150383925
H         1.54770390096957    1.72772543695745   -4.22509083688356
H         0.16949877920927    1.26538013148303   -3.12103745475204
H         1.45487700144233   -1.46045150932401   -1.54913278067037
H         0.34189599376759   -0.93677565407352   -2.78568268830558
H         0.27735771329070   -0.61561416815139    0.03199471295761
H        -0.84840433058204   -0.45300603570668   -1.03754003518251
H         2.22515511367591    1.63810756643238   -0.53166763157244
