35
 energy: -49.723063575154 gnorm: 0.101578241248 xtb: 6.4.1 (79825abcba525fcdf90b791dcacef51065a7a4e7)
C         3.64208911795698   -1.37681832101384   -2.75144379497739
C         2.95362783218483   -0.07893174994556   -3.14767095499991
N         3.93386828764250    1.03524492285179   -2.99397968065483
C         3.69705146752521    1.66858441286430   -1.88149268424747
C         4.41296974608214    2.97713668371506   -1.77055616262665
C         3.72521954642924    3.91609713550327   -2.76889232953445
N         4.29204170534483    4.91244598834040   -3.37357935734599
N         2.43383026105408    3.66666048202914   -3.20260292988223
C         1.22897787422389    2.99066229263839   -2.68369628102105
C        -0.07691637976277    3.72334035934156   -3.08675317808193
O        -0.03934376919518    5.07660522154291   -2.63320222389361
C         1.05693642513529    1.50098478704151   -3.05455231276251
C         1.82806699306639    0.46199565526812   -2.19094885344960
C         0.96639626344441   -0.68302544659866   -1.57390202217480
N        -0.32170019788789   -0.25668333116870   -1.00509460826875
N         2.60200987380400    1.20342003847605   -1.17563646262312
H         4.61768298058454   -1.36634840477847   -3.25182832939359
H         3.12524592934808   -2.31603560875616   -2.97479572725858
H         3.64189497396131   -1.32961206009448   -1.66051794796794
H         2.62416797244505   -0.17873843929883   -4.19084363997885
H         5.43955661621022    2.88713019210049   -2.13481619893311
H         4.37106363440281    3.35724496274072   -0.74794403272848
H         5.29126864261576    5.06957429677929   -3.19177236300473
H         2.31053383309009    4.16209543347279   -4.08874501252429
H         1.27602703138180    3.09323721646663   -1.59107345184958
H        -0.93593938746422    3.27404361545181   -2.57799046338594
H        -0.12684004602933    3.71073702162289   -4.18277695070356
H         0.90373435954478    5.28152005275972   -2.77976558103386
H         1.43830816067420    1.40459845860934   -4.07989883653655
H        -0.02345830135314    1.31872557244424   -2.97739216667743
H         1.58835321702440   -1.16606503081095   -0.82071833324174
H         0.74268936864834   -1.35360559921446   -2.41292419029393
H        -0.29821969948865    0.01249525993144   -0.02459061146830
H        -1.17710554460307   -0.78051105236110   -1.19713963111228
H         2.19508361628092    1.89927458868323   -0.55398467190558
