35
 energy: -49.726520320777 gnorm: 0.114297219604 xtb: 6.4.1 (79825abcba525fcdf90b791dcacef51065a7a4e7)
C         3.79388819785060   -1.31101610453720   -2.62797637168019
C         2.98702530193852   -0.14361755982530   -3.17719159769711
N         3.94687879297685    0.99853470797406   -3.17001542524924
C         3.64537487217166    1.61375878958790   -2.06302709649505
C         4.19694723866942    2.95401699847345   -1.69339102628139
C         3.59989464130222    3.88229933200357   -2.75788259699650
N         4.21941666378904    4.77268371399356   -3.46714484076142
N         2.26362110169655    3.75329381871516   -3.09808909064249
C         1.12916412867549    2.95484235256973   -2.59471088600115
C        -0.03148720114955    3.83746660439269   -3.12243692745702
O         0.05232604717308    5.19958856720551   -2.70285968674808
C         1.05988201155356    1.48586845876212   -3.06756099403777
C         1.82125970541212    0.39123236020868   -2.26629479463044
C         0.90074992170198   -0.68944974205540   -1.61892742413099
N        -0.02966413443533   -0.04180133381671   -0.68117308157158
N         2.69911697138766    1.01080724470054   -1.25384699242116
H         4.78179242302411   -1.34768901419771   -3.10229485547257
H         3.25693795190277   -2.26537943384546   -2.62383499067852
H         4.08192446672286   -1.13989002981284   -1.58869842768157
H         2.69218202032929   -0.31770107033308   -4.22097165175719
H         5.28489266186479    2.99091682288652   -1.79177957553033
H         3.94198278778603    3.22844255894975   -0.66788737120299
H         5.24541298001282    4.79557239527508   -3.41232485993844
H         2.07254710966540    3.97309945674316   -4.07843689407413
H         1.16894257508594    3.05324505258879   -1.50141564990440
H        -0.98001030051700    3.43352991713417   -2.75397161969347
H        -0.09938024761845    3.75129486817574   -4.21417146502257
H         0.93169365226037    5.56609641579071   -2.91558456376679
H         1.37967964087137    1.48349238495093   -4.11817702494643
H        -0.01981852159292    1.28492539955896   -3.05042850085875
H         1.60677581132730   -1.35505679849768   -1.12300599975810
H         0.36455836929451   -1.23670363882236   -2.40422514168492
H        -0.12343898042211   -0.78888396376876    0.00254496309755
H        -0.91950920771921    0.27911826474505   -1.06611650848117
H         2.40838195302995    1.71023130332509   -0.57374947503030
