35
 energy: -49.715745851329 gnorm: 0.121365535240 xtb: 6.4.1 (79825abcba525fcdf90b791dcacef51065a7a4e7)
C         3.70805138161926   -1.23245364638962   -2.83028798059448
C         2.88371420444619   -0.03908379598406   -3.29052818287066
N         3.83734111432788    1.09446843264737   -3.11294140531936
C         3.63150491318451    1.61850465707190   -1.93912459104488
C         4.06789794904812    2.97525250350430   -1.48530596135084
C         3.56664449122024    3.79549471755714   -2.67998997202358
N         4.20674832740794    4.74821267130773   -3.28185406648727
N         2.40551373410437    3.35359258197525   -3.29196032746770
C         1.12610078890150    3.00874128882517   -2.64227803715621
C         0.01422103404401    3.90089017195717   -3.25254486563071
O         0.43193076284485    5.25804845015692   -3.10393144718685
C         0.81129136947545    1.51894016841263   -2.90239182949135
C         1.77134934765701    0.45647597286875   -2.29460061596776
C         0.93761641023136   -0.71061790093323   -1.68053399416558
N         0.20115111671666   -0.19583670764615   -0.51557856279903
N         2.58361812907338    1.06724435198742   -1.22374192295209
H         4.56476752301585   -1.18244896035317   -3.51279414604664
H         3.14327662783234   -2.16994806505296   -2.79457012375800
H         4.00906989957850   -1.14329492404084   -1.78444562320597
H         2.58297268302496   -0.05841185667528   -4.34688766805745
H         5.14690853832048    3.14505018529455   -1.44565705141561
H         3.61771652644610    3.31078122560042   -0.54896672744693
H         5.13498321203438    4.87662302898096   -2.85984891792846
H         2.27387289780339    3.73150578542309   -4.23310744608294
H         1.15853247187933    3.06664689561990   -1.54584974202789
H        -0.93716675975363    3.72699668408190   -2.73946601271997
H        -0.01402230398701    3.54685866947047   -4.29070831097402
H         1.29457028136816    5.34028373586758   -3.55332846494546
H         0.81450819391469    1.41370406991317   -3.99554562448078
H        -0.19731781346246    1.42072917139221   -2.47873278976730
H         1.71397683358613   -1.45833946142231   -1.52047050663807
H         0.29082354417564   -1.14067232401568   -2.45538422511962
H         0.71150670912543    0.20862661178836    0.26566603692633
H        -0.46979294298871   -0.79691990622054   -0.03440485627666
H         1.99975085442103    1.56712391213076   -0.55630435073578
