35
 energy: -49.723077962859 gnorm: 0.116605677854 xtb: 6.4.1 (79825abcba525fcdf90b791dcacef51065a7a4e7)
C         3.57559632956777   -1.41540145332830   -2.82782672457878
C         3.03726696735355   -0.02179140658776   -3.11685433554928
N         4.12572461109258    0.96765164473145   -2.86756656147943
C         3.77296117022348    1.61159292068879   -1.79251958706125
C         4.25619238248245    3.00704602290385   -1.55513138653379
C         3.62143850532673    3.85696066273003   -2.66240497132704
N         4.09030504636009    4.85542870201360   -3.34275087516239
N         2.43577498833495    3.42293301947227   -3.23146724747697
C         1.15280010640947    2.96900849478067   -2.66064770324388
C        -0.03286233497333    3.77882603742142   -3.24633699595494
O         0.19224812794925    5.17544307446313   -3.05338081489632
C         0.93902705890143    1.47098839859616   -2.97130573042427
C         1.84498215109398    0.46050963772617   -2.21095731903645
C         0.97319489454804   -0.70048403241901   -1.63966299865469
N        -0.08747505361732   -0.07704913834852   -0.83293494028784
N         2.58569584252241    1.23144358021688   -1.19284093020182
H         4.47431813214981   -1.52105237180149   -3.44703160478651
H         2.83325484941709   -2.18500964914881   -3.06399282721460
H         3.79924281920961   -1.55833789125002   -1.76862934742566
H         2.82300994002456    0.13455236006194   -4.18285853849289
H         5.32873400411519    3.13389702936586   -1.72315051973811
H         4.09401434584110    3.35323241692827   -0.53247443127914
H         5.00021149931754    5.20699976135317   -3.01923024205454
H         2.27915425392771    4.07813238287550   -4.00094066929732
H         1.10300533109519    3.13625138186938   -1.57616156848194
H        -0.95465622616770    3.56681618339361   -2.69499732142629
H        -0.21009112519209    3.52670615091772   -4.29940149709289
H         0.89121131826606    5.51519454960939   -3.64404709431866
H         0.88661612457134    1.31085157989735   -4.05651515087758
H        -0.08472204013523    1.28812205601195   -2.61786187715756
H         1.53447261819138   -1.56038112228089   -1.27498827447960
H         0.63908168390719   -1.05862778304611   -2.62138705965864
H         0.25714609743137    0.08420842822974    0.11026641486067
H        -0.86332531537066   -0.73147064168236   -0.71986880318128
H         2.39402334400797    1.67552297178619   -0.29712412064479
