35
 energy: -49.720256966900 gnorm: 0.120737446907 xtb: 6.4.1 (79825abcba525fcdf90b791dcacef51065a7a4e7)
C         3.70752696740366   -1.51842695689266   -2.61673766861646
C         3.03289127271897   -0.23638135726183   -3.08225904443449
N         4.04841936455349    0.85583489558652   -3.04165962981746
C         3.74959506896233    1.63497448211429   -2.04242296632393
C         4.29864085345609    3.01368933574255   -1.85574430914880
C         3.52365521596904    3.94167402962088   -2.79891122117012
N         3.84006719839965    5.13933098586818   -3.17989162765236
N         2.43260307201783    3.42642752618445   -3.47871715960103
C         1.26600813332103    2.86330418122950   -2.77171267016537
C         0.06403854143793    3.71624405622611   -3.25378582134205
O        -0.00995293889042    4.99425597684755   -2.62160170783198
C         0.96961040386811    1.39109018902663   -3.13366001859926
C         1.80532219827963    0.37106565665064   -2.30837983374877
C         0.93992669617492   -0.55809778733901   -1.40171428266438
N         0.10909182708468    0.35292227784064   -0.59905755061053
N         2.65705437192406    1.12301532443626   -1.36568109373851
H         4.64210804849667   -1.74325129754493   -3.14426954856337
H         3.09448555683894   -2.40471654915653   -2.81119345822508
H         3.89605500776263   -1.39068955876213   -1.54880134434397
H         2.74099082725169   -0.42429917888373   -4.12446603766650
H         5.33716931956951    3.02982077256599   -2.19613455620314
H         4.24468137373131    3.42260638780046   -0.84487874799629
H         4.74160875281386    5.48437993993479   -2.82724221785217
H         2.13081491897903    4.09894202894499   -4.18762742350828
H         1.33079011333545    3.23558792816308   -1.74032138030758
H        -0.83512533034117    3.20449374296945   -2.89567473318067
H         0.01403468332331    3.76047708645122   -4.34898552233068
H         0.81282739959842    5.46614455427890   -2.85229836301469
H         1.29530825463383    1.30459594139154   -4.17889198156416
H        -0.10392619892185    1.23261198469503   -2.96386992671098
H         1.57331232875176   -1.08919428919485   -0.69164210681990
H         0.47856845977894   -1.31659338462051   -2.04631780299523
H         0.05404833722393   -0.15703242054390    0.27918669807930
H        -0.86123132049501    0.34620371607274   -0.91752722582043
H         2.01638837405133    1.51490443992135   -0.67849592466350
