35
 energy: -49.726425344582 gnorm: 0.114597808815 xtb: 6.4.1 (79825abcba525fcdf90b791dcacef51065a7a4e7)
C         3.48178199148751   -1.38811024503645   -3.05837877110078
C         3.01931858239024    0.05952241336120   -3.13565560793194
N         4.04240406641633    1.10615495768234   -2.84627971791808
C         3.62063184973059    1.72096158421486   -1.77906398010903
C         4.18540309416560    3.10123827151186   -1.66493845070578
C         3.65077579638647    3.88178374739323   -2.87168805562149
N         4.27969910039733    4.83344224147812   -3.48686802364850
N         2.44672662296939    3.42473937086511   -3.38098745004958
C         1.22388616163518    2.95503652095264   -2.70132031987808
C         0.00522011931988    3.77855630228157   -3.19254335747487
O         0.16936263807900    5.16471068209979   -2.89241134252680
C         0.92587800523463    1.44905471630338   -2.87302200857994
C         1.84711232300545    0.42383102264076   -2.15177628510031
C         1.01601096917921   -0.71602285510987   -1.48521779474789
N        -0.04707346448140   -0.24177862792597   -0.58552570014963
N         2.57129347433652    1.14447554526113   -1.08604176008138
H         4.42825973771172   -1.48222596709519   -3.60390584358128
H         2.75686791165253   -2.01647307868044   -3.58639563016150
H         3.82796295560269   -1.71024047185292   -2.07413362023000
H         2.79988582543072    0.34597315605476   -4.17320543934769
H         5.27224779086586    3.16641897496798   -1.76078843573070
H         3.83481765099230    3.51466745750645   -0.71723588327819
H         5.22486894616996    5.08624161834813   -3.17231437423240
H         2.22891293068228    3.89137646873142   -4.26456688251070
H         1.29390247043728    3.16768646944349   -1.62594243307820
H        -0.84881766038393    3.51323455550278   -2.56099649593969
H        -0.10930510234679    3.54668938444249   -4.25886461922429
H         0.84221897781997    5.65149602195826   -3.40541391399997
H         0.93409451617221    1.19447099768865   -3.94128687775433
H        -0.09843624813425    1.26842965333224   -2.52006341501185
H         1.67679414162116   -1.36467022625619   -0.91070448393234
H         0.66935303117892   -1.32541020919276   -2.32911117279981
H         0.42335816714971   -0.01643299898386    0.28757793949615
H        -0.78930028094325   -0.94308866346854   -0.56944244348291
H         1.94190622917857    1.67097044101809   -0.48360645216875
