35
 energy: -49.723288729500 gnorm: 0.110587472394 xtb: 6.4.1 (79825abcba525fcdf90b791dcacef51065a7a4e7)
C         3.72207207201032   -1.29105878239673   -2.58649819373822
C         3.02051506376793   -0.02334082841518   -3.05146419238516
N         4.08704339149258    1.00118313521116   -2.85461410563179
C         3.75740852432075    1.76357991411472   -1.85215691889459
C         4.18111738737742    3.19153167308746   -1.71585030171671
C         3.56776020164008    3.79315736165600   -2.98595331540341
N         4.24479754020375    4.54424284562657   -3.79659246829696
N         2.29556965010664    3.46383232505058   -3.42308719792413
C         1.12582319511868    2.97048914708275   -2.67061615454761
C        -0.03327258005194    3.91557670576623   -3.08041888500478
O         0.24938354861274    5.27278498896700   -2.73904353124714
C         0.86357931262499    1.46337993621585   -2.88537518090463
C         1.83746307498654    0.49573481285647   -2.15382549567023
C         1.08252483907233   -0.72579434808525   -1.54371791217484
N        -0.24212452964407   -0.51161091318484   -0.94045060682177
N         2.62661400597313    1.30261749287037   -1.20212278551855
H         4.72158029630591   -1.32950225546724   -3.03570091861437
H         3.12200461867449   -2.14051080788163   -2.92926981713289
H         3.74640547241064   -1.39985524967592   -1.50025748578614
H         2.73035501137153   -0.24729608177741   -4.08701505339254
H         5.24317832740752    3.44381143314110   -1.66063614364766
H         3.58239086100624    3.66282861814100   -0.93394254454485
H         5.18791734642012    4.74513142806685   -3.44111198662950
H         2.14946200951079    3.85401637703432   -4.35706500480699
H         1.30564568264012    3.24149958623571   -1.62143691035891
H        -0.92620939212212    3.64966275973309   -2.50545696855347
H        -0.20716595623563    3.83977020425872   -4.16112873771323
H         1.18725646998345    5.47275113072252   -2.92145839810852
H         0.80340667915403    1.27462872011493   -3.96557072720047
H        -0.16618503976723    1.23841167344940   -2.57650708086269
H         1.81067800011187   -1.30170392144874   -0.97313533537902
H         0.97457958298948   -1.35938646771445   -2.43286894258249
H        -0.19011065845885    0.26246060509437   -0.28279995930534
H        -0.57179072005177   -1.35150296277540   -0.46201918436155
H         2.02330047614086    1.94310623764128   -0.69022394070462
