35
 energy: -49.724079969423 gnorm: 0.108589066219 xtb: 6.4.1 (79825abcba525fcdf90b791dcacef51065a7a4e7)
C         3.68971841584735   -1.46641537832194   -2.78704591693773
C         3.13206861100940   -0.10408999493009   -3.17250754735955
N         4.11248731353342    1.00733010308333   -3.00102423009695
C         3.72519309916119    1.64083544298210   -1.93167742270920
C         4.16195048752973    3.03813470886954   -1.62516040824575
C         3.54973642945760    3.90325235909698   -2.73335154775902
N         4.18965169816583    4.69390779035706   -3.53648121614326
N         2.20281918482017    3.85548107092207   -3.05200763858283
C         1.13022515642804    3.01462099388994   -2.48596578769311
C        -0.12422624836789    3.85802339241247   -2.83187894251517
O         0.07512481918325    5.24143255254980   -2.54052999456616
C         1.09448177168616    1.60001130980419   -3.10554094964944
C         1.90282718281419    0.48281402756007   -2.38554123634841
C         0.95047239985997   -0.66155444720861   -1.91891750927420
N         0.07860271146707   -0.26889702216142   -0.80080957217955
N         2.66473093879008    1.05936250178428   -1.26008512685676
H         4.25898845839412   -1.50910520721443   -1.85089055054416
H         4.41996918862124   -1.88301997276982   -3.48869860457242
H         2.83701745648861   -2.14728771120147   -2.74628312966195
H         2.86971847534230   -0.22845870473690   -4.23195044062706
H         5.23548096274791    3.09019329245645   -1.82387972915692
H         3.78817095098937    3.42150114432039   -0.67369152445649
H         5.19096158119245    4.81889306887359   -3.34166138719315
H         2.01960284585093    4.26773335815811   -3.96982321122032
H         1.24218122892463    3.12822466414183   -1.39917237112401
H        -0.95913891463801    3.63567320389834   -2.15948855838137
H        -0.41548038268681    3.72744929547801   -3.88166023696383
H         1.02679642998953    5.41232640146417   -2.67463330934544
H         1.34266017364783    1.68829068038139   -4.17169498609426
H         0.06069117887845    1.26311752201040   -2.94996310687085
H         1.66109727586754   -1.39291530054037   -1.53477306916674
H         0.38427217786353   -1.06890325824862   -2.76577343303430
H        -0.43710057728390   -1.07138580239954   -0.44802293349470
H        -0.55198485435117    0.43910466383292   -1.18039884960561
H         2.26078754525178    1.47224934564751   -0.42186817375199
