35
 energy: -49.723813465386 gnorm: 0.113264354369 xtb: 6.4.1 (79825abcba525fcdf90b791dcacef51065a7a4e7)
C         3.65513001926885   -1.29904086317969   -2.78102083893119
C         3.01062563504644    0.01857570882356   -3.18597161274193
N         3.99334171905715    1.12456917542073   -2.99380093935962
C         3.73862506776866    1.69999149433366   -1.85413562725890
C         4.13178095863070    3.11414088112763   -1.56644668703427
C         3.64245426628021    3.84584194837687   -2.82203227060809
N         4.31227851092727    4.71906626313388   -3.50647335545420
N         2.33516551333648    3.59287840160965   -3.20284117417844
C         1.16849593040402    2.94872252174731   -2.56892298412089
C        -0.02675944847849    3.82542899446219   -3.02431532604389
O         0.28106690795102    5.21706399945100   -3.10822543254084
C         0.94971418950619    1.45677618218894   -2.90433648607663
C         1.86186359098531    0.41951622825275   -2.18877588859743
C         0.95662822324276   -0.71593833490489   -1.61817231916683
N        -0.27373625073965   -0.21779819627732   -0.98369486759776
N         2.71656116731516    1.06427404085381   -1.17224435083964
H         4.55744190562213   -1.48098227424056   -3.37684654127704
H         2.94031920940724   -2.10377899761195   -2.98247586042510
H         3.99066362504778   -1.42400111734697   -1.74944447139527
H         2.67951597225137    0.16716991332808   -4.22279396131586
H         5.19275422078110    3.20760238706651   -1.32095162330429
H         3.46903449299718    3.52011477178922   -0.79968313695829
H         5.23226724099718    4.79254668960049   -3.05434623040679
H         2.18674288599477    3.85354704151430   -4.18055697530193
H         1.22074681635171    3.19948487393794   -1.50077131822256
H        -0.90869289944266    3.74608309003667   -2.38047900365860
H        -0.24045866964209    3.50197124216216   -4.05077870172683
H         1.19013274930286    5.45482534771556   -3.37267976978352
H         1.17961174466211    1.33861539660012   -3.97169554639373
H        -0.10907357853594    1.25637732350823   -2.69165447904285
H         1.46930352189597   -1.42884331489023   -0.97290192171960
H         0.70944752075663   -1.37954804804887   -2.45614878709614
H         0.05616199622007    0.06534129509938   -0.06424083605537
H        -0.87014916196708   -1.03681161662160   -0.85522797114935
H         2.31248923097320    1.49950155160737   -0.34546967110311
