35
 energy: -49.721420660252 gnorm: 0.124714580463 xtb: 6.4.1 (79825abcba525fcdf90b791dcacef51065a7a4e7)
C         3.65280530788419   -1.46593772385135   -2.63957996628929
C         3.06149674654140   -0.15185168680904   -3.12847313226824
N         4.08592683159499    0.91917574794159   -2.95722695696214
C         3.71721732063954    1.57922517684366   -1.89740787725785
C         4.22683025138159    2.95795034884941   -1.62070133429468
C         3.60017669222807    3.84980963639936   -2.69922556318503
N         4.31426881752825    4.59693593626892   -3.48122271570303
N         2.26907559881828    3.88412063546569   -3.08001746841486
C         1.14873130779300    2.98303238589667   -2.74718776698857
C        -0.10697811817000    3.75271806386317   -3.23237807904896
O        -0.18816250415842    5.05648444666302   -2.65614177685140
C         1.15819457923057    1.52922972889791   -3.26933700568609
C         1.82359328646073    0.45059963644152   -2.36725419324907
C         0.79261139528411   -0.56022140905416   -1.77597275507868
N         0.15531766516549    0.09194962865369   -0.62140286654262
N         2.57523381783365    1.10434208766732   -1.27766055923652
H         4.64925288572063   -1.61656776535156   -3.07164535395427
H         3.02941250932174   -2.35411039182233   -2.78679685250383
H         3.88593833018151   -1.45873157822361   -1.57283504180671
H         2.91779739799929   -0.23930895942594   -4.21402191070825
H         5.31721960025833    2.92869022634568   -1.55097296853539
H         3.81785571596127    3.30717258164537   -0.67056572822409
H         5.29003195743652    4.68412854324401   -3.17060830697362
H         2.21000469839336    4.41376513534874   -3.95288225094840
H         1.02686479339884    3.00538772494787   -1.65576269843682
H        -1.02295710994410    3.32461815340832   -2.81244885666289
H        -0.11038796723233    3.67215921235658   -4.32664403209302
H         0.68433103423586    5.45627042694973   -2.83444897645462
H         1.68281449726858    1.63601846155618   -4.22821151543265
H         0.10013559279187    1.26387651525006   -3.14079227751698
H         1.34982230551065   -1.46774253228074   -1.54496457201668
H         0.07175585465039   -0.73257631089940   -2.58488671537038
H         0.79315507449006    0.19963980767978    0.16343011218454
H        -0.73688322512556   -0.37255007666582   -0.44473175170391
H         2.11334680471407    1.81290216560473   -0.71121859555126
