35
 energy: -49.715145258948 gnorm: 0.111199297322 xtb: 6.4.1 (79825abcba525fcdf90b791dcacef51065a7a4e7)
C         3.31653327517701   -1.55630109479846   -2.97842845893351
C         2.80023646925571   -0.14483438518320   -3.21651194697009
N         3.97298460267262    0.77734484717813   -3.20514270510945
C         3.81868237206903    1.54821067635060   -2.16746015033336
C         4.56878734837123    2.84025088350589   -2.09583958987318
C         3.79797070072262    3.91651840453678   -2.86966907246802
N         4.33150164862373    5.09740852928387   -2.89176015764351
N         2.64576062817469    3.53084759823416   -3.53425901394725
C         1.41767568225391    3.08470431873102   -2.84820472407079
C         0.27292795826525    4.02854272504892   -3.29915209087136
O        -0.78623257919001    3.91045704427508   -2.34905699811384
C         1.02536988386414    1.59675881753183   -2.98379909884518
C         1.80934891156313    0.51435983277966   -2.18772061933238
C         0.93580305234500   -0.37307703988597   -1.24768342511597
N        -0.04564432271064    0.44906869108803   -0.52288041699188
N         2.81319589893262    1.14438886653961   -1.30743000995432
H         3.24557129084578   -1.77389744691396   -1.90609739973488
H         4.39977610648191   -1.56143718545874   -3.13874272013165
H         2.87417571939994   -2.30744708089976   -3.63603560401689
H         2.20098077179233   -0.15013773391060   -4.13715242761589
H         5.54067684602313    2.68476620941355   -2.57115258841310
H         4.72021315952372    3.15587166518232   -1.06170820202100
H         5.23683256940171    5.25910622712081   -2.43303656870127
H         2.45910367473052    4.31148199299147   -4.16803715005469
H         1.54039210013221    3.34058030318657   -1.78706004079828
H        -0.08910520204811    3.64594483267552   -4.25893250112495
H         0.64532492451411    5.05615226098599   -3.20293114566490
H        -1.54849975056091    4.49993696930778   -2.50503596104950
H         1.02328774563934    1.37240377460836   -4.05884824659096
H        -0.03328227112480    1.57146812535952   -2.69218145187968
H         1.66953582066690   -0.88538194623016   -0.62589305973685
H         0.45386739792902   -1.20534547942626   -1.77564929223951
H         0.32407842379988    1.03718105742621    0.21996914202777
H        -0.68128956472536   -0.17461597445440   -0.02291277172263
H         2.40014934052668    1.77919898545456   -0.62723730237683
