35
 energy: -49.717972866588 gnorm: 0.126082117518 xtb: 6.4.1 (79825abcba525fcdf90b791dcacef51065a7a4e7)
C         3.53738631880236   -1.53410538325820   -2.84145072105455
C         3.08951358244753   -0.10626727166585   -3.11744485044969
N         4.08108197024104    0.97576246181489   -2.84932963502953
C         3.69687925694326    1.71063974951504   -1.84575001368822
C         4.22447120475570    3.10197500117018   -1.69413252057118
C         3.55588778876176    3.94475155698944   -2.78685668151626
N         4.06828393924384    5.05200318028057   -3.22399379654014
N         2.46592416848924    3.48720699593417   -3.50841205625734
C         1.28475318263226    2.96165162481101   -2.79670027163817
C        -0.02364745486699    3.71822399158824   -3.14356895041880
O         0.18634496122492    5.04981535185843   -2.67323544591402
C         1.03471355574049    1.46700545406803   -3.09634099003286
C         1.87921362029183    0.44781770490733   -2.27901141076989
C         0.98597012685840   -0.61580477833614   -1.56829359817348
N        -0.03461271031846   -0.03692857609746   -0.68070417989246
N         2.62612591317717    1.12099610576608   -1.19803509129126
H         4.29493633138660   -1.60440988773740   -3.63104108380620
H         2.76917812134657   -2.27604165343639   -3.08337800099899
H         3.94100764726926   -1.65277728142172   -1.83380273485811
H         2.82025135631376   -0.10950062242236   -4.18243396398560
H         5.31307609644756    3.19192458112298   -1.73306312224948
H         3.92385072786244    3.44677015175654   -0.70281136358630
H         4.88977923286540    5.21591479954807   -2.62861489258302
H         2.25790567054008    4.08595673383320   -4.31099081324447
H         1.41721335053451    3.17963319081818   -1.72829106325205
H        -0.83492771475465    3.26814001016777   -2.56229762739424
H        -0.11931893417366    3.65384178729046   -4.23472486846920
H         0.84694789546724    5.49368188494485   -3.23843764545257
H         0.93392929124657    1.28516698249369   -4.17469505789248
H         0.07659905051002    1.32376751747143   -2.57872686604778
H         1.62322125342656   -1.28871096687448   -0.99509937547726
H         0.47731042282705   -1.26762574695770   -2.28945615069712
H         0.01071358948302   -0.60772145496421    0.15985370250556
H        -0.95536486508385   -0.06440299415966   -1.12167550376067
H         1.98922118267685    1.69283868601184   -0.64703426483207
