35
 energy: -49.717501561577 gnorm: 0.109156613426 xtb: 6.4.1 (79825abcba525fcdf90b791dcacef51065a7a4e7)
C         3.51314574507782   -1.59684218661442   -2.64793567596662
C         3.07471900183326   -0.21767241288844   -3.11820919461657
N         4.15974214161974    0.79327649879138   -2.95514756183614
C         3.85932963641418    1.59451996744931   -1.97403103442814
C         4.42854615034991    2.97153387742550   -1.84372313285127
C         3.65477874741189    3.99373547260520   -2.68497817043170
N         4.14015689505600    5.01653009578075   -3.31580619558741
N         2.27349032653009    3.96453311356756   -2.78089131873417
C         1.24231620204735    2.94664457065233   -2.50073101194125
C        -0.08024414428737    3.47607134232751   -3.11324491290803
O        -0.19964335061263    4.89458955367975   -3.00371921515129
C         1.29033965613045    1.56892416579492   -3.19776170493202
C         1.94215525080006    0.48970644222855   -2.28651132024940
C         0.85592276214928   -0.47331556878387   -1.71468602403295
N        -0.06250905515317    0.27103715728464   -0.83894405404214
N         2.74409470880290    1.18896548708157   -1.26304326847835
H         4.33443180924644   -1.92891135668524   -3.29407571682559
H         2.70024315599080   -2.28260094865052   -2.90883103205149
H         3.74031939889313   -1.64602611891932   -1.58101452636917
H         2.95829492147474   -0.27171743823352   -4.20918994342782
H         5.43002005353428    2.88155766761843   -2.27223385090855
H         4.45097477479470    3.41995774030758   -0.84854124744052
H         5.15327347412592    5.18268591643132   -3.36254583827370
H         1.82843225427291    4.70954054699927   -3.32199465900268
H         1.11013209599519    2.87611346086848   -1.41256162629367
H        -0.98206265346263    3.02692211519625   -2.68474060111831
H        -0.08760767034057    3.24677281903686   -4.18622548285523
H        -0.34226017887857    5.19029095128307   -2.08443232583322
H         1.95187420849243    1.70868366410389   -4.06315730274599
H         0.31377887270399    1.24191770477622   -3.57962645307915
H         1.39359929254768   -1.28970171917966   -1.23316658567086
H         0.24397058029019   -0.94705275033201   -2.49235454074694
H        -0.01124467185202   -0.13759399881143    0.09099631048545
H        -1.01002094469308    0.05114630825110   -1.15017438836309
H         2.42696082203071    1.97093979692198   -0.69366135280963
