35
 energy: -49.721588928193 gnorm: 0.104434433670 xtb: 6.4.1 (79825abcba525fcdf90b791dcacef51065a7a4e7)
C         3.46417854211553   -1.59931069903495   -2.20783809808275
C         2.88658352342837   -0.40315727559109   -2.95018939645553
N         4.05192226006083    0.48952129387325   -3.21663380472843
C         3.90533424115800    1.47917913725933   -2.38361656484694
C         4.51977841688870    2.83494284076071   -2.53030687116171
C         3.67338658894584    3.99329909821974   -3.07174368876015
N         4.13714508259387    5.19378033020801   -3.22477204624422
N         2.42731301661070    3.70396900349038   -3.60240233915368
C         1.31235149735592    3.04321055128004   -2.89659352789452
C         0.01640925402998    3.84439214369233   -3.18516518699523
O        -1.06716497087827    3.36811403263465   -2.38674673631138
C         1.17547409203231    1.52511894832062   -3.14746008876721
C         1.95064949279433    0.59356729444494   -2.17213124584672
C         0.86400501901343   -0.06153997957867   -1.26420236288727
N         0.53948592403087    0.84897325066874   -0.15507883138338
N         2.98369882192782    1.27997503010932   -1.37137505566599
H         3.71056489730070   -1.24258345700827   -1.20070497507197
H         4.37546158219396   -1.92296221111236   -2.72160361439886
H         2.75121347969018   -2.41628916088350   -2.07909539416164
H         2.41659559178908   -0.74956408579479   -3.88068824038609
H         5.39980607856271    2.83243829973718   -3.17854461773276
H         4.86384349280937    3.02535416258751   -1.51180956712130
H         5.09457572063433    5.25428409240339   -2.85617547062107
H         2.18967980980075    4.49310665239541   -4.20795814867621
H         1.52183199680857    3.07765366624994   -1.81886837833168
H        -0.31518716190747    3.71430775104109   -4.22041852089016
H         0.24383112066393    4.91056406705911   -3.06076238596901
H        -1.72905653954353    4.06346665323631   -2.56352780723256
H         1.46067896473283    1.31807895666986   -4.18758644863727
H         0.11075988042889    1.29875567287680   -3.00059891499242
H         1.29721718007780   -0.95552476255335   -0.81636109082530
H         0.00327414669499   -0.24534923629740   -1.91921170973104
H         0.09259203916405    1.68938422165418   -0.51339684242122
H        -0.18846458623818    0.41466505336961    0.41453466339626
H         2.71491114575727    2.07125121665027   -0.79009313428137
