35
 energy: -49.725963822971 gnorm: 0.102937905845 xtb: 6.4.1 (79825abcba525fcdf90b791dcacef51065a7a4e7)
C         3.26792097920343   -1.41690786814237   -3.03635016103780
C         2.82005759873276    0.03604316874712   -3.09828623097599
N         4.02414030651549    0.90726138166276   -2.96772730167022
C         3.83665208485095    1.67508242318181   -1.93325766636417
C         4.50385604094834    3.01161688525730   -1.85796195841799
C         3.82177116881675    3.74020185336675   -3.02211245183577
N         4.39181467840453    4.77359991349218   -3.55763431445265
N         2.64185661465942    3.31155447176377   -3.60698245236299
C         1.40485615429482    3.09853779560074   -2.83086343331481
C         0.28164648442498    3.96647309168204   -3.45513916816720
O        -0.97303054932530    3.86023806457420   -2.78212682498514
C         0.84300778452546    1.66149139581304   -2.75673125660131
C         1.79212218576712    0.63763283701301   -2.07054822178112
C         0.96722345229221   -0.42034698484923   -1.27398229397301
N         0.18243056850097    0.24008966821923   -0.21926645094067
N         2.69891780259446    1.40512765912316   -1.19406073574346
H         3.66817208281027   -1.57599840227158   -2.02800154593604
H         4.07373108274432   -1.53112030503981   -3.76899446041039
H         2.48334380865242   -2.13789970953400   -3.27500698887177
H         2.32590775839591    0.23643630202406   -4.05868871777896
H         5.58084302776603    3.01835106121061   -2.04429718243092
H         4.27932356258188    3.52727939205513   -0.92219951768291
H         5.28708669080000    4.99111801688105   -3.10225374190787
H         2.58155047734733    3.74466884770746   -4.53147188136777
H         1.55816648694769    3.52724347220068   -1.83122986426636
H         0.14921894539019    3.49312430867835   -4.43341902399232
H         0.72561341765025    4.95262550610264   -3.64038523592970
H        -0.77378756207577    3.77144822549206   -1.83066171437667
H         0.61744989705209    1.44138039039797   -3.80875073465364
H        -0.02917920219554    1.67587879981912   -2.08926759920717
H         1.64718658593329   -1.17230973080954   -0.87442565230843
H         0.18485791390563   -0.90896934528218   -1.86797980119386
H         0.71992180123133    0.72117105740125    0.49771360661586
H        -0.30987584249750   -0.46946508734797    0.32585879063281
H         2.25755296607943    2.21182043966353   -0.75737169532188
