35
 energy: -49.720487845020 gnorm: 0.107513074832 xtb: 6.4.1 (79825abcba525fcdf90b791dcacef51065a7a4e7)
C         3.63575069705018   -1.40696504923359   -2.50690386890207
C         3.15095044247340   -0.10509739762853   -3.12786585702556
N         4.20520744427902    0.93347770861405   -2.93869412579101
C         3.81778869812207    1.62086503678290   -1.90320688935374
C         4.28005249364291    3.04208096590134   -1.84310346901867
C         3.75393335639116    3.76536542836664   -3.08864770489610
N         4.56463514148325    4.26056803027172   -3.97022686396111
N         2.38437289090298    3.91209421187816   -3.23281651342278
C         1.25188619711316    3.15734906306797   -2.66207959016647
C        -0.09041210191220    3.90042252186747   -2.88726604790050
O        -0.78629001907411    4.00029492715463   -1.64459739212275
C         1.30301421588686    1.72658651643120   -3.24223130361010
C         1.93862004347568    0.58384126534711   -2.39956278603050
C         0.83225761065572   -0.31915989394904   -1.77119373370090
N        -0.07506965539745    0.59876733508104   -1.06502886183458
N         2.72157218710352    1.08397880240611   -1.25221569079938
H         3.88366023733564   -1.21917154915151   -1.45545147009077
H         4.55187970223304   -1.65890147820167   -3.05130975350262
H         2.87819908851789   -2.19336501297313   -2.50071304833209
H         3.09071738435725   -0.28769660135674   -4.20941286603927
H         5.36258302527512    3.14945282002779   -1.73696172112979
H         3.81828030635096    3.47842021646057   -0.95521354569015
H         5.57244498865227    4.13089659265262   -3.81627170140742
H         2.20148845696075    4.29430846926091   -4.16360711590551
H         1.33771434125511    3.22943599021157   -1.56937794114451
H        -0.73807354046198    3.37974637018345   -3.60004834035476
H         0.08361635768029    4.94913083796916   -3.15900911178860
H        -1.06063481471055    3.12387078699268   -1.31371535809786
H         1.79915444500268    1.70802445612843   -4.22180801766327
H         0.25434632434018    1.48400334043468   -3.46103243697426
H         1.30201519525461   -0.94126495435846   -1.00977632103199
H         0.34558904070244   -0.81682236063573   -2.61923057820020
H        -0.12698012519861    0.33180345979565   -0.08501246740194
H        -0.94769577656871    0.74231064695476   -1.57582633431813
H         2.15154223341833    1.61642992231957   -0.59813989231773
