35
 energy: -49.720606444229 gnorm: 0.118156235127 xtb: 6.4.1 (79825abcba525fcdf90b791dcacef51065a7a4e7)
C         3.47990190606467   -1.44248171501805   -2.67193864545181
C         3.03730178810675   -0.03396688286166   -3.04028025163378
N         4.17201496608494    0.93441028046878   -3.01674995070060
C         3.89417154194975    1.70269420541639   -2.00315670032420
C         4.39474635934005    3.10937544794042   -1.91468241003250
C         3.82723600906954    3.68461755125711   -3.21789026607485
N         4.51641837998182    4.26880378663332   -4.14708287238664
N         2.44891668777479    3.68982273508711   -3.35286646225474
C         1.27511316960120    3.15033356383488   -2.63939349819345
C         0.05664535062628    3.92370907538064   -3.20671907442319
O        -0.90927374344526    4.16542858947896   -2.18348013183064
C         0.99285017406456    1.64284311355751   -2.82397858322474
C         1.96460232894491    0.65424350746273   -2.11806057561173
C         1.06617088472794   -0.38918350009657   -1.38431840028278
N        -0.08010936538681    0.27823773424608   -0.74784965991836
N         2.84724830906953    1.35847330545433   -1.16698044769324
H         3.80093271183072   -1.35686035418382   -1.62700520839113
H         4.29292745012933   -1.67200929975923   -3.36868008514956
H         2.63661680298268   -2.11771465459660   -2.83093040307632
H         2.65511895386277   -0.00861841208957   -4.06984722685201
H         5.48672293016445    3.15141703357317   -1.93674633545275
H         3.90614822783564    3.63768989484208   -1.09362838069281
H         5.49872885519775    4.35359065866389   -3.85712617988819
H         2.27748431730503    4.05768622746861   -4.29158526196974
H         1.47898903089156    3.31348707214952   -1.57244671518175
H        -0.39953182860818    3.46164114310423   -4.08820826381241
H         0.49241214273342    4.88072424848651   -3.52000583497701
H        -1.30351275391471    3.32974209063292   -1.86872476995486
H         0.93572379723418    1.49807083643404   -3.91110680333879
H        -0.02830254448855    1.41677585287380   -2.48847063277502
H         1.68376749371096   -0.90227820149522   -0.64760161885095
H         0.65347514742410   -1.10246927726044   -2.10860172597165
H         0.10618591003593    0.98383522682700   -0.03945514851281
H        -0.93941224512706   -0.19301519941609   -0.46059661226442
H         2.30891481893399    1.90503835342410   -0.49786372542834
