35
 energy: -49.718640390272 gnorm: 0.110295401518 xtb: 6.4.1 (79825abcba525fcdf90b791dcacef51065a7a4e7)
C         3.59407168451331   -1.40066804177116   -2.87225558474555
C         3.11762049227971    0.01677105010105   -3.15393826090648
N         4.15231587435777    1.05430009254562   -2.87318754581227
C         3.76333151312411    1.67300869682678   -1.79582072251074
C         4.29949422082712    3.05847547804538   -1.62213620418769
C         3.66011304480403    3.84147697927877   -2.77514208811386
N         4.25624628796066    4.67005307983569   -3.57372309236291
N         2.31985436808629    3.64429308185487   -3.06295286860635
C         1.13422188058008    2.96875336125706   -2.50096649776268
C        -0.12511428726890    3.72741030493699   -2.99406275106631
O        -0.04016190379985    5.14845178544850   -2.88511245771989
C         0.95523784702371    1.53435599704061   -3.04570541671815
C         1.87661232584498    0.51049310576441   -2.32270779229537
C         1.02188781036925   -0.57436808839887   -1.59688496639939
N        -0.13436704780637   -0.16118301181953   -0.78641919260914
N         2.63324548973170    1.12632588796357   -1.21464046304017
H         4.49469856788095   -1.65043073148575   -3.44563809017337
H         2.75923459994973   -2.10691275828567   -2.93062957776326
H         4.00687711566918   -1.48068557856827   -1.86451725699102
H         3.00373119147719    0.15361838396756   -4.23792002195265
H         5.38431572826728    3.02638550250994   -1.75174978479951
H         4.09111279893778    3.58919529468450   -0.69106818084945
H         5.26012923994158    4.88037900044714   -3.50907337867675
H         2.16947924219026    3.88581944788389   -4.04527559769414
H         1.16417679872098    3.09996577394516   -1.41080784053128
H        -0.92525845645487    3.40678583503373   -2.31908359464779
H        -0.31712544853028    3.36516666652443   -4.01182038279956
H         0.80975777225563    5.41635630093378   -3.28352302062977
H         1.12389938989368    1.52166593544539   -4.13081484172400
H        -0.10722015498472    1.29185862247473   -2.90858174978781
H         1.75275460084901   -1.06738424975913   -0.95640688661671
H         0.62762964672198   -1.21331664962960   -2.39687618705996
H        -0.28143944280142   -0.97341882111897   -0.19224813832602
H        -0.87785375634289   -0.04535138694744   -1.47693033440637
H         2.27377593849231    1.62088027471291   -0.40072948079174
