35
 energy: -49.727456117712 gnorm: 0.102720378899 xtb: 6.4.1 (79825abcba525fcdf90b791dcacef51065a7a4e7)
C         3.55355921587569   -1.45276791342086   -2.99100068852667
C         3.06948928862161   -0.01039843754384   -3.01803801837555
N         4.16302159999389    0.97919065399122   -2.79268830034861
C         3.76286706053104    1.72868075279716   -1.80629621350443
C         4.15607639817057    3.15002566457690   -1.55665649494698
C         3.56978026386676    3.90009009406858   -2.75873070226233
N         4.16233663958001    4.90983832990762   -3.31454565567671
N         2.37852842296334    3.53951056964410   -3.36611140045696
C         1.19534337449608    2.92163075065005   -2.73666351264282
C        -0.00013072909874    3.78822788381226   -3.21045978766229
O         0.30762108776657    5.13108481318472   -2.83566644586210
C         0.95049225639524    1.41145075967410   -2.95038260155093
C         1.85453141131280    0.44747651385463   -2.12976177812316
C         1.00233866728719   -0.71044234714401   -1.52371889886157
N        -0.30274161058229   -0.23939073122843   -1.03445638282513
N         2.65343854976525    1.21818268178778   -1.15646001821774
H         4.46664747760923   -1.59572955267172   -3.58100871367888
H         2.78835370701163   -2.15920899310847   -3.32944359799015
H         3.74337344646040   -1.91803952251598   -2.02154695334726
H         2.75552490396577    0.24361544852340   -4.03961412149580
H         5.21522724696000    3.41996271250809   -1.55587698847828
H         3.62320071087563    3.56595972219622   -0.69932553772798
H         5.13994159145269    4.98014984693608   -3.00544628962802
H         2.39267549448429    3.88966042183233   -4.32689261134663
H         1.27611190960045    3.10065196887787   -1.65592869938541
H        -0.97892391408703    3.48196162470596   -2.82732473204445
H        -0.02820316286699    3.79625199909265   -4.30730384366808
H         1.24413893364623    5.27721369459411   -3.06900726130047
H         1.09118180381564    1.13424702071412   -4.00367968490577
H        -0.10160568696344    1.28871160491367   -2.65977997433504
H         1.60049914548138   -1.12909184436695   -0.71478132697795
H         0.78965668672201   -1.37388598018603   -2.37123859289684
H        -0.10115592959219    0.31098035174705   -0.20328165759629
H        -0.93339925806488   -1.00997027735307   -0.80757937267117
H         2.19300875475988    1.77477350896999   -0.43919818956802
