35
 energy: -49.724582892010 gnorm: 0.105571675251 xtb: 6.4.1 (79825abcba525fcdf90b791dcacef51065a7a4e7)
C         3.66509390760800   -1.49639863050321   -2.55363438803447
C         3.04519261536846   -0.22006787320642   -3.10334943672452
N         4.05357024973063    0.87894199466045   -3.13847580833538
C         3.78976905394553    1.62513913880523   -2.10482830329907
C         4.21645962569724    3.02351713555774   -1.78918759153054
C         3.51917868840062    3.95281606513444   -2.78994978126861
N         4.05178442710116    5.08102200404111   -3.14084475338674
N         2.38853813349159    3.52876050591047   -3.46806380780055
C         1.18537542711667    2.89006045205932   -2.90028860417086
C        -0.09492203179041    3.69943520092735   -3.23252755337286
O        -0.10026298039540    5.01654385122599   -2.68149015128331
C         1.06500795341645    1.36871903502862   -3.13967000997149
C         1.86834178698705    0.37878566257104   -2.24824511634686
C         0.89147264340495   -0.56148987249912   -1.47629618605357
N         0.16443514073941    0.29388891145021   -0.52537789987731
N         2.75146901809180    1.13143462181686   -1.33546760715997
H         4.48551528984020   -1.71471173027658   -3.24755501116437
H         2.99223279530025   -2.35386391462252   -2.65924353030184
H         4.11184939494759   -1.34056104741120   -1.56952471451628
H         2.56585094291759   -0.41766673309814   -4.07180216195189
H         5.30711539077919    3.09124428893735   -1.81264311872473
H         3.91403800136897    3.33026314865510   -0.78598170999890
H         4.87688376862178    5.23801170843371   -2.54859237661051
H         2.25333207527518    3.90514507331150   -4.40931805541404
H         1.33255330532310    3.01292821755620   -1.81871471959607
H        -0.96944727410898    3.20536916091387   -2.79694526138660
H        -0.10943050413946    3.75468688067742   -4.32827208524976
H         0.66087264026838    5.56466534560275   -2.95186517136101
H         1.39351515447782    1.13451877619563   -4.16109228292484
H         0.01681967261151    1.04700855808571   -3.20469732516700
H         1.40941668491243   -1.39117292806309   -0.99587621055629
H         0.27014974476095   -1.00991486528184   -2.26150545332864
H         0.47021978427161    0.14729643922185    0.43347711383586
H        -0.85585047201241    0.29555145360669   -0.57020633279819
H         2.32828532225750    1.80495603468414   -0.70022123449013
