35
 energy: -49.719977118806 gnorm: 0.111007307381 xtb: 6.4.1 (79825abcba525fcdf90b791dcacef51065a7a4e7)
C         3.63196443552784   -1.35777083948967   -2.57719614028543
C         2.97288807356532   -0.17470933210350   -3.27107531437262
N         3.98008107226220    0.92370800408567   -3.34124407078549
C         3.83974561428924    1.59010745079585   -2.23171886599064
C         4.47061800961198    2.90881400329056   -1.91522555848901
C         3.64893839432064    3.98572726624104   -2.63385108036927
N         4.23533132824916    5.05890991131517   -3.06288157218225
N         2.31684395474567    3.85891319652033   -2.99085591782353
C         1.23724375607223    2.96895656476507   -2.52144393690525
C        -0.09370112013781    3.64974454596325   -2.93344554666222
O        -0.21223428424523    5.05957240999349   -2.74166117221021
C         1.11095366338997    1.55567677221189   -3.13215060232090
C         1.90943252704380    0.49328460194546   -2.32362964078068
C         0.94926758877616   -0.54927623700491   -1.67136679848364
N        -0.17604376056192    0.08382702088960   -0.96613163976862
N         2.89552143059974    1.05054058677089   -1.37671283550985
H         4.04267152083307   -1.04073337517363   -1.61123308300974
H         4.51188928720573   -1.67661037445250   -3.14571676175686
H         3.00119147661313   -2.23672442744875   -2.42916323792578
H         2.63660344296597   -0.63344877486724   -4.21085465797465
H         5.50704012949295    3.01137073120691   -2.24685555511132
H         4.45413246869124    2.81822129803253   -0.82733990346176
H         5.26181398748892    5.04767355655211   -3.01384421725086
H         1.95537554738060    4.61703687468744   -3.57437514136507
H         1.28224976831490    2.99837380423078   -1.42432544353991
H        -0.94220349416443    3.10383964664661   -2.50840535614894
H        -0.19810948869807    3.51657187158366   -4.01755037130963
H        -0.33176592875719    5.25846207922581   -1.79349328284490
H         1.54418455658312    1.57400627371833   -4.14113288889299
H         0.05656804201251    1.29203460249209   -3.29085995324207
H         1.52601518906861   -1.14789587639840   -0.96676754358833
H         0.62760680419514   -1.18151920033275   -2.50831596093637
H        -0.31582720595263   -0.43965106640950   -0.10541808508474
H        -1.04237939810506   -0.07444666720618   -1.48324583621172
H         2.39901606515658    1.48884345188157   -0.60364975866721
