35
 energy: -49.714804749668 gnorm: 0.136499780351 xtb: 6.4.1 (79825abcba525fcdf90b791dcacef51065a7a4e7)
C         3.57208389926681   -1.39635211024569   -2.87934776926930
C         3.03429307528947   -0.00320003557622   -3.17156817383279
N         3.99459707650786    1.12731575696844   -3.01146736595572
C         3.65898746486185    1.77235632912398   -1.93159826690444
C         4.24433377956426    3.11042247079927   -1.60894731091101
C         3.64345194550085    3.86939871129464   -2.79815640968529
N         4.21817655977443    4.85164012476389   -3.41826787509149
N         2.35834341912296    3.61032913906638   -3.24468622588617
C         1.26790377746818    2.93911373706094   -2.51098448295993
C         0.02657117331818    3.66066962448775   -3.09671678867316
O         0.02225718744702    5.07701089678031   -2.91670357904688
C         0.97618944685956    1.47209525666234   -2.89702991786200
C         1.91316117747689    0.46408193975717   -2.17180937971376
C         1.01525622739080   -0.69205938372378   -1.63199413428432
N        -0.14168770210313   -0.13125668813765   -0.91681369851119
N         2.70718092079104    1.15735649272631   -1.13814600386303
H         4.07241532010474   -1.49353362467413   -1.90852239869250
H         4.21340610935771   -1.73193760480403   -3.70107173563550
H         2.62280884796655   -1.93395355779216   -2.92635024373658
H         2.66866845170806    0.16223685294124   -4.19414516023442
H         5.33542103690635    3.17508665798556   -1.60516979077708
H         3.77061010765349    3.36400696511876   -0.65855013530206
H         5.18542042339686    5.09360798361010   -3.16909238807262
H         2.15334694386620    4.22494681466789   -4.03596819391863
H         1.16489035588081    3.12929769175497   -1.43405450543495
H        -0.86098265221706    3.24227797009434   -2.61109941616720
H         0.18537068207239    3.53721863876345   -4.17535570509415
H         0.82153314814768    5.50756611568399   -3.27537808744130
H         1.21666565320382    1.36724244841624   -3.96344789322344
H        -0.06253969518729    1.20419978006925   -2.66102429388524
H         1.59639705422847   -1.26459399942561   -0.90955187892884
H         0.69194203576388   -1.34446027345709   -2.45267782334148
H         0.20244995003420    0.11130158124549    0.00900016095942
H        -0.85980467483888   -0.84451706130951   -0.78056855704928
H         2.29947826227081    1.60380914193667   -0.31917589060653
