35
 energy: -49.725945440304 gnorm: 0.092231716745 xtb: 6.4.1 (79825abcba525fcdf90b791dcacef51065a7a4e7)
C         3.26636668013647   -1.52481994114534   -2.66043039171961
C         2.78229230080439   -0.19637355782744   -3.22291297207644
N         3.94009821529895    0.73866169264718   -3.32815815593249
C         3.83103517113313    1.55291643643511   -2.31824584923831
C         4.63639776727541    2.79096794649283   -2.08207969423466
C         3.84476065267280    3.97364605905907   -2.65296086690552
N         4.39177623527305    5.13861498884024   -2.80549327250650
N         2.60550054112188    3.78240522006542   -3.24089889740060
C         1.35355204545370    3.18436233871836   -2.73803049245598
C         0.06614096241726    3.90154180038687   -3.22058425960848
O        -1.10798586132749    3.41672618143437   -2.56879750918812
C         1.28907670860839    1.72853654131381   -3.25055924765912
C         1.80143423108647    0.61212498676852   -2.29606110422951
C         0.70163082715831   -0.16956126274821   -1.51267382875086
N         0.19951047506535    0.62795567056511   -0.38291993342752
N         2.83912818205478    1.19526714981060   -1.42273789473714
H         3.08636632987247   -1.63889445485211   -1.58485400659929
H         4.34484236654474   -1.62287073674229   -2.82296752037632
H         2.82275090620632   -2.37895110903986   -3.17619454330543
H         2.36630523666400   -0.43397958051991   -4.21145359468645
H         5.53711816747828    2.78154860811342   -2.70117675891789
H         4.93588424373316    2.87356846238371   -1.03543793034487
H         5.28860551617415    5.19381348978402   -2.30664667380566
H         2.38578129792070    4.56005837990044   -3.86770397932754
H         1.24044436514356    3.25157586131453   -1.64750361356506
H        -0.13638947312691    3.80881669082633   -4.29250359594962
H         0.22199828125223    4.95097847660803   -2.94074414898057
H        -0.89372303888189    2.51356477847953   -2.26670781478445
H         1.91789040188280    1.76531355591315   -4.15017639292668
H         0.28570772209330    1.53495094538286   -3.65330006284456
H         1.15458284735994   -1.08497790551961   -1.13281833524553
H        -0.18420166962720   -0.33654130968421   -2.13805303552974
H         0.96485033131909    0.93866928116316    0.21046737140227
H        -0.48365142820166    0.14661327119095    0.20410169480978
H         2.48186268357765    1.91745694908171   -0.80059904896864
