35
 energy: -49.718644276777 gnorm: 0.101440105204 xtb: 6.4.1 (79825abcba525fcdf90b791dcacef51065a7a4e7)
C         3.32569851569458   -1.48298958806951   -2.23842195603705
C         2.87629405496085   -0.20953015773075   -2.93972156443123
N         3.95394583147077    0.79814706980013   -3.16138626464645
C         3.84034398898167    1.67277235265963   -2.20380931674804
C         4.57078390603958    2.96985925162826   -2.34933578162609
C         3.78375687092411    3.92496358654472   -3.25470106015080
N         4.37130335444736    4.98386929738230   -3.71638559989992
N         2.48801322881594    3.67922885875589   -3.67739796559707
C         1.42018039348072    3.19144191737192   -2.78313631159254
C         0.08695315420496    3.89033707769692   -3.15553731871968
O        -0.99656552739459    3.32033865883261   -2.42100684006984
C         1.18275619548787    1.68225380570199   -3.01172440085200
C         1.86899249056682    0.64118267701954   -2.08156188792424
C         0.84974513554998   -0.26803642726585   -1.32740543694671
N         0.02761416735201    0.44390671888418   -0.33657771686404
N         2.86857715405244    1.36274025430387   -1.26931681274480
H         3.84858894105381   -1.14274714174964   -1.33670228682284
H         4.01760781153932   -2.04220964141305   -2.87691748140495
H         2.48442258978094   -2.16465408356057   -2.09722707089404
H         2.39916358575141   -0.37430127892497   -3.91538103690819
H         5.52637996568500    2.75572122253033   -2.83477186963739
H         4.73797846012885    3.49033253878432   -1.40428154744102
H         5.39205232891002    4.88577083546392   -3.64822559410653
H         2.28511132150320    4.45865848204049   -4.30765654219133
H         1.76329918607858    3.48662139304713   -1.78228744770095
H        -0.06263527030068    3.74320228078408   -4.23006151492923
H         0.11358554050441    4.95784613754058   -2.90327862331876
H        -0.76319457945981    3.21256430964209   -1.47931158691515
H         1.69066390112646    1.47221397242141   -3.96250473726661
H         0.10078637064696    1.49639642127489   -3.04669851396596
H         1.51205975280596   -0.94440392827917   -0.78767429319447
H         0.29295690551048   -0.91195039509333   -2.01953429158889
H         0.15324199378265    0.14797398570146    0.62832538457362
H        -0.84726583491595    0.83938984063448   -0.68467706636238
H         2.48088680024923    2.03556263887927   -0.61109216742356
