35
 energy: -49.714384666704 gnorm: 0.118548805126 xtb: 6.4.1 (79825abcba525fcdf90b791dcacef51065a7a4e7)
C         3.35893058767827   -1.41637640012721   -2.01935914818608
C         2.86099888268807   -0.32802312858606   -2.95905890074400
N         3.97409477054274    0.60383781182535   -3.30334763677880
C         3.79703277706855    1.56224713678238   -2.44025494131584
C         4.60453334438342    2.81975036247941   -2.50176377124820
C         3.78305419778586    3.94492835189086   -3.14244202723037
N         4.12407861956782    5.18635860016804   -3.29143215743923
N         2.52236988115935    3.65064860462175   -3.63446265966258
C         1.40237317439165    3.04375194244985   -2.88935140391682
C         0.07701562760075    3.81561613835186   -3.11801023147030
O        -0.81022250469578    3.17618444683986   -2.20019675796077
C         1.14736352036452    1.56353808100997   -3.25019560731352
C         1.83305753558129    0.61213393954248   -2.22813613498282
C         0.80636196300801   -0.14920713288538   -1.33340012786299
N         0.47843686390137    0.79939960519000   -0.25770855297790
N         2.82725902404355    1.39523135624625   -1.46795275467933
H         3.76642676942074   -0.95057869637118   -1.11423095574000
H         4.08498611793771   -2.02588103484775   -2.56752841969708
H         2.46997261257344   -2.02230783353113   -1.83241400090226
H         2.59040755099259   -0.81139720389535   -3.90766010619188
H         5.53303603552330    2.75165081999853   -3.07440005427034
H         4.88378252919457    3.02472274223194   -1.46639900550486
H         5.07287042894330    5.31337828734141   -2.91745667124750
H         2.25049683071339    4.55827499525077   -4.01943667123996
H         1.60771466120563    3.02110369085270   -1.81051785931943
H        -0.33186474533684    3.66805217305799   -4.12283325440955
H         0.10623884954424    4.90540961214694   -2.99385102652101
H        -1.64677526932755    3.67471595954181   -2.26737610773863
H         1.70392666806891    1.43518246238045   -4.18818948701967
H         0.12854032473134    1.23753768203822   -3.49949039424468
H         1.29686244106289   -0.93740098228822   -0.76278371041857
H        -0.00443534674245   -0.55459584294257   -1.95141988326525
H        -0.07510000092097    1.59199367720468   -0.57360112036666
H         0.05198351659748    0.35598296744272    0.55746892002292
H         2.53687419781522    2.08872570728477   -0.78166149110440
