35
 energy: -49.717809979839 gnorm: 0.099545185613 xtb: 6.4.1 (79825abcba525fcdf90b791dcacef51065a7a4e7)
C         3.48273139478228   -1.43744782186899   -2.10835772824937
C         2.85764886895900   -0.36972531299119   -2.99420474584204
N         3.89697145173141    0.64396166265060   -3.33790417259355
C         3.84863600717939    1.55615958009335   -2.41033366795587
C         4.58423123191567    2.85828471419114   -2.43323958593376
C         3.76829263437669    3.96572856356817   -3.11083420588837
N         4.28080130386576    5.13309421530137   -3.34372277828209
N         2.47771600988659    3.74916667442195   -3.56418036754992
C         1.37886775882727    3.04727730715881   -2.87295624257380
C         0.02543672169722    3.77601875829852   -3.07738751688865
O        -0.80115158308268    3.16396952862326   -2.08713831723778
C         1.22389806028483    1.55667269113365   -3.24759448262433
C         1.85261047937861    0.56579070796481   -2.22640630482258
C         0.77345073781640   -0.00665473508263   -1.25583068549133
N         0.24242565782099    0.97240703193986   -0.29460626022564
N         2.89876555375512    1.25954625968073   -1.44934790971817
H         3.82550819720990   -0.94559606237032   -1.19028169852085
H         4.31817998621327   -1.92117391178956   -2.62524921139049
H         2.70505860014971   -2.20028669179741   -2.03319420102046
H         2.64518463050105   -0.85792811541886   -3.95505405189114
H         5.47219861933260    2.82485460757625   -3.06968556046477
H         4.81526307658721    3.11980597980557   -1.39873250382896
H         5.29881316565477    5.11533534718825   -3.20395855694238
H         2.34237930922072    4.42139391692826   -4.32292940254773
H         1.60760077847294    2.99042941320290   -1.80010517550717
H        -0.48689495314820    3.58878540806895   -4.02664381291955
H         0.03403112949412    4.86697278384386   -2.96049109392253
H        -1.72326755332789    3.46466038835631   -2.19738533693996
H         1.73194695090409    1.47116657199275   -4.21746315723085
H         0.22506021752162    1.18944949984496   -3.51943075081154
H         1.26997196407927   -0.75550389364171   -0.63927981585653
H        -0.00088490999685   -0.49334811993419   -1.86181299731615
H        -0.40233625894457    1.62116613166528   -0.73934240625004
H        -0.17784975773336    0.40271819302951    0.44147681174562
H         2.56779032425299    1.90951754486354   -0.73924495856842
