35
 energy: -49.719420503646 gnorm: 0.110789831600 xtb: 6.4.1 (79825abcba525fcdf90b791dcacef51065a7a4e7)
C         3.58022099051749   -1.44411334770742   -2.97474711042996
C         3.01635301197128   -0.03671632854389   -3.10425068547314
N         4.09483324439192    0.95028460098612   -2.80660711386687
C         3.68396952619880    1.72095546896202   -1.84116111941365
C         4.17647917805991    3.11219561427021   -1.59817917552609
C         3.67931686294053    3.89788959912231   -2.81753843366950
N         4.35687438538198    4.86255065224050   -3.35604545081717
N         2.44949568799364    3.59714040896454   -3.37887601327976
C         1.20234425364870    3.03297656141327   -2.82729673480366
C         0.01003351861895    3.97074425584481   -3.14919563672316
O        -0.01178375020650    5.13058750688776   -2.31688940449400
C         0.91485808326671    1.54374115082309   -3.12021559248487
C         1.75455917177557    0.49812663643451   -2.33183468865416
C         0.93199306959559   -0.71404764984646   -1.79488458290519
N         0.24876593936011   -0.48145052434272   -0.51285440894625
N         2.47370434028083    1.29853145717446   -1.32102335669064
H         3.92292234502277   -1.60294519986418   -1.94537548112258
H         4.45464389783577   -1.60747976146279   -3.61336915864380
H         2.82240837744077   -2.21038076457060   -3.15053676330632
H         2.80948902081919    0.24818910075988   -4.14480376483955
H         5.25609638223650    3.03068436723842   -1.74801180696716
H         3.91556730692275    3.61146807843243   -0.66296471736099
H         5.22627461549094    4.99544555450427   -2.82436906746769
H         2.25252261072413    4.03707507198621   -4.28085427350153
H         1.30656268486170    3.17581704986758   -1.74318644441531
H        -0.91264061147534    3.40833477840198   -2.97313974956060
H        -0.02782014723920    4.26570181130286   -4.20536159212717
H         0.89827582372437    5.46452418630833   -2.20223716564005
H         0.87676274194341    1.39992216598248   -4.20830345162540
H        -0.12552718371105    1.40376549593879   -2.79705881636920
H         1.59259572103637   -1.54321432930224   -1.54283259937439
H         0.32346812041709   -1.10924886560862   -2.61780267426166
H         0.15206521483451   -1.37979755222552   -0.04593027715892
H        -0.73383265636636   -0.22179930252750   -0.61323544017354
H         2.04567606770449    1.73253153472539   -0.50573855233834
