35
 energy: -49.713952805709 gnorm: 0.122928468402 xtb: 6.4.1 (79825abcba525fcdf90b791dcacef51065a7a4e7)
C         3.49390984041591   -1.46738950173925   -2.32008354146678
C         2.93631927581063   -0.20753161319647   -2.96609849826818
N         4.01858978999066    0.80409638956574   -3.14268085384803
C         3.93819254503177    1.69004148043468   -2.19217257724163
C         4.34417953732262    3.12933225776227   -2.16439615078596
C         3.72923693033504    3.87646533837702   -3.35391703271053
N         4.37169167108351    4.52468802119393   -4.27408227254342
N         2.38563512816343    3.68036578902632   -3.62647715987891
C         1.38958775925138    3.04087232287006   -2.74508919279786
C         0.09674144789109    3.89347966112737   -2.82408905824823
O        -0.93903790838176    3.70889041675754   -1.85892902643008
C         1.25607392468036    1.53776022522091   -3.07539155551008
C         1.95899442837586    0.60994389411488   -2.04339768306622
C         0.89635522732153   -0.22326204337876   -1.26182083376859
N        -0.11356130193284    0.68636347774783   -0.69865833767811
N         2.98944717856528    1.31673412809961   -1.25715875992921
H         3.39229561289707   -1.43333751039164   -1.22884905896263
H         4.49103139728652   -1.75225428700275   -2.67185440118394
H         2.78474974338440   -2.24447620285814   -2.61261710947127
H         2.61795663912808   -0.44511274090660   -3.99026394718856
H         5.41664001025871    3.31550623342063   -2.06522504691305
H         3.88588220762601    3.57871843777325   -1.28122593814102
H         5.34812559783101    4.77191064611307   -4.06998591525437
H         2.08918405559687    4.23496787680590   -4.43297507323905
H         1.88307348008875    3.11988951430418   -1.76693377024968
H        -0.34756492566641    3.52681326152116   -3.75509668316831
H         0.33683875635846    4.95695767692026   -2.94773015702135
H        -0.50245863360479    3.25753185509124   -1.11157285553379
H         1.74526570113753    1.44911743553663   -4.05462803843612
H         0.17628719323697    1.35100661256790   -3.15028204450399
H         1.38327992897569   -0.76631182002548   -0.45222547734584
H         0.48464569594032   -0.91184575714122   -2.01017131651892
H        -0.64583833452067    1.12247136946791   -1.44758263798997
H        -0.81911370754979    0.09032045266685   -0.26285608544823
H         2.67429657921925    1.91913225832322   -0.49949783812599
