35
 energy: -49.726365114970 gnorm: 0.109723230204 xtb: 6.4.1 (79825abcba525fcdf90b791dcacef51065a7a4e7)
C         3.60224361761100   -1.39479441879328   -2.59192215437941
C         3.04243262921181   -0.09795289865781   -3.15787106405454
N         4.02788875489428    1.00972769562905   -2.99113200404748
C         3.70918442440245    1.69872029038572   -1.93351905798867
C         4.18840387865692    3.09638635344844   -1.70106868621992
C         3.69370759808829    3.83180152678482   -2.95237290726770
N         4.26232765954210    4.81717963957286   -3.57313532436272
N         2.47340497903775    3.47800434170358   -3.50346172419883
C         1.30864655207948    3.01976113708445   -2.72163186895376
C        -0.01597351996353    3.76530285314113   -3.02852111553922
O        -0.06860906777585    5.01057047056174   -2.33211318454331
C         1.05296920758304    1.53060578364161   -3.04306140204390
C         1.86814674372127    0.45521546404829   -2.26912800808140
C         0.97111411404645   -0.64255730288956   -1.61757299375691
N        -0.16752188918192   -0.07302745507618   -0.88024961598623
N         2.66170759888370    1.13576610252167   -1.22669387834501
H         4.48974700796571   -1.51284414026239   -3.22491479385898
H         2.92135852206026   -2.20990709321977   -2.85862216405186
H         3.80067594614469   -1.26293571819090   -1.52628358490203
H         2.77314777369128   -0.18829942318851   -4.21902024227683
H         5.25803352651786    3.31431770509599   -1.64570210942060
H         3.78690611215512    3.50432143374227   -0.77135771566274
H         5.21017238232189    5.02618570441849   -3.23534188905552
H         2.31910181282998    3.74420739819590   -4.47877297876457
H         1.57409120573850    3.19146968907555   -1.66967408335746
H        -0.89323192647437    3.23624717849214   -2.64232768826782
H        -0.20025303439309    3.95800781037545   -4.09286371699780
H         0.74471093108307    5.54018909209249   -2.43642978378331
H         1.23855284288446    1.37333719135466   -4.11399347493859
H         0.02092842380222    1.32450448871394   -2.72867477526382
H         1.54240126882058   -1.30881835250283   -0.97168558256897
H         0.67034250254507   -1.17645524562226   -2.52761152489835
H        -0.20849027790135   -0.23772751462125    0.12254249277326
H        -1.03744739139977   -0.41373023501670   -1.29273757911469
H         2.03834123821368    1.53135108216771   -0.52585126439785
