35
 energy: -49.723361251399 gnorm: 0.107559390488 xtb: 6.4.1 (79825abcba525fcdf90b791dcacef51065a7a4e7)
C         3.86385307082244   -1.38219948288226   -2.73165099988559
C         3.02436106603997   -0.18506674714723   -3.15309000594572
N         3.91871882436079    1.00863067071353   -3.12003415289745
C         3.73274352400711    1.64350401672286   -1.99879491088185
C         4.16315721384160    3.03348235067184   -1.65258801692258
C         3.60328023360680    3.93238497169826   -2.76156683964971
N         4.20338656547756    4.78942969388401   -3.52641423556335
N         2.33286447288216    3.58209623743170   -3.18742063599782
C         1.19286511951485    2.88965275755128   -2.55589035387996
C        -0.04405897183525    3.70457766645136   -3.01474549562998
O         0.02787364103988    5.06726950361767   -2.59481380976092
C         1.09402431298778    1.44191300482709   -3.08556163872193
C         1.87121050671168    0.38609243556543   -2.24819895680352
C         0.86547616505651   -0.62246910478921   -1.61133270364490
N        -0.02811287640616    0.13756665492973   -0.72344405569456
N         2.72365867193624    1.06342137527395   -1.25114600623641
H         4.82831436269672   -1.34318116792957   -3.25181411892704
H         3.35001206117873   -2.33594897796468   -2.89124861171054
H         4.08713088846291   -1.33426716523965   -1.66385084201166
H         2.77020316840099   -0.32401869685640   -4.21271755374251
H         5.23656691463470    3.10691031595961   -1.84511618760168
H         4.00354449090570    3.26303877648441   -0.59722001942074
H         5.21671556691749    4.89345190139481   -3.39024787566074
H         2.08934213465451    4.23123363593061   -3.93923385439761
H         1.12419561027840    2.96677684287281   -1.46231993455535
H        -0.95319897176105    3.32318788302469   -2.53868468748231
H        -0.11752341967209    3.62053614370761   -4.10628538650624
H         0.66936759308686    5.60317388161358   -3.09895592062262
H         1.36852584234063    1.41744965989588   -4.14863297600145
H         0.02994497880291    1.17058084858925   -3.10877623034226
H         1.47144772065388   -1.31387788483837   -1.02635771309797
H         0.28061063530628   -1.12450944498876   -2.39208139388225
H        -0.74832110755193   -0.35394010449396   -0.19988150281340
H        -0.72080015227827    0.66142965185265   -1.26079588168077
H         2.21482777393506    1.59399908696499   -0.54699268790953
