35
 energy: -49.719656100088 gnorm: 0.117748253250 xtb: 6.4.1 (79825abcba525fcdf90b791dcacef51065a7a4e7)
C         3.57505590948143   -1.32889508872876   -2.69193274336933
C         2.93999034147421    0.01257602198763   -3.02753876367410
N         3.93044958199551    1.12826479595411   -3.03807649529376
C         3.67847563570746    1.85135702742210   -1.98523501315812
C         4.20987490615431    3.24431628554041   -1.86509225551422
C         3.81479672378885    3.68067221847647   -3.28101207384789
N         4.53474423800637    4.29811318859475   -4.16423743353760
N         2.50891811998093    3.42786988688703   -3.66673463087310
C         1.32252569045400    3.03387459134583   -2.88242113653526
C         0.19957961286095    4.02784547428634   -3.27694085903313
O        -0.84006728911314    3.85362186091113   -2.31401489594809
C         0.83485026961441    1.56852470548403   -2.84786835917449
C         1.79247856258006    0.58486555321461   -2.11621654255136
C         1.03917539936412   -0.48616744227815   -1.26785388393538
N         0.47892205996985    0.23321116259039   -0.11324893232396
N         2.63344141207449    1.38768100856374   -1.20636723458860
H         3.75951670696826   -1.44792758639315   -1.61765012066676
H         4.55866246311357   -1.40969912192622   -3.16641238554049
H         2.88306536713021   -2.10271488854963   -3.03060613908505
H         2.61230264521552   -0.06386027686699   -4.07324076688518
H         5.30051023335569    3.17838656397663   -1.83619579824066
H         3.93480285490349    3.86080705966003   -1.00704302360740
H         5.50045985742187    4.30156794737984   -3.81269941483975
H         2.32799902044373    3.55011492761870   -4.66584924731384
H         1.59800602567068    3.30270892743139   -1.85363613665619
H        -0.18175601354501    3.74867412525409   -4.26450052388462
H         0.60218098145933    5.04847612584170   -3.26491842730117
H        -1.46443181296299    4.55186421103213   -2.58877629071438
H         0.61262666746176    1.16891122961665   -3.84636519508374
H        -0.02904663113657    1.58739688116684   -2.16981905453642
H         1.85524026028669   -1.04416381223419   -0.80946370201410
H         0.28361431083498   -1.15250784647368   -1.70236348607355
H        -0.03651656204094    1.06699577208725   -0.38439979351123
H        -0.14636826071525   -0.36484174429157    0.42928200759282
H         2.40581937466307    1.73408781572039   -0.27661242706291
