35
 energy: -49.716306820092 gnorm: 0.113777455021 xtb: 6.4.1 (79825abcba525fcdf90b791dcacef51065a7a4e7)
C         3.66001073143752   -1.25212865437515   -2.77407840270100
C         2.93547139318337    0.01923462341080   -3.19140635503186
N         3.96586358121929    1.09257163376232   -3.08130816062973
C         3.66971560162710    1.71835076249380   -1.97879952359297
C         4.22134230199886    3.05257118641784   -1.58800697066380
C         3.69976257591542    3.85631530358137   -2.78520043741242
N         4.40493615148956    4.72083688666628   -3.44472865943545
N         2.43658304970222    3.54757572824560   -3.26171612539692
C         1.19338780808146    3.03306718499342   -2.65537174639639
C        -0.01156522117098    3.88068337335808   -3.13938291100199
O         0.02741447225428    5.23458683842317   -2.68786110343969
C         0.94672015622456    1.53596854430948   -2.94541008358130
C         1.79998644354425    0.46985383165929   -2.20023377592560
C         1.09098885601799   -0.73859599121920   -1.51374417097159
N        -0.13728917577775   -0.41275870281880   -0.77235015172520
N         2.62961559414547    1.20482976650668   -1.22499903922829
H         4.35620735523645   -1.48429869485708   -3.58874705900867
H         2.93454780200323   -2.06735707254033   -2.86489827524695
H         4.06835471286232   -1.13286317609582   -1.76840519104496
H         2.61348261609609   -0.15579518064646   -4.22697490216971
H         5.30772019204908    3.14185284828406   -1.50751468504171
H         3.64820433114284    3.20719738921548   -0.67172228829265
H         5.41808316408658    4.63150200888537   -3.29724992659869
H         2.27387611956862    3.96895472066913   -4.17925184337006
H         1.23416105543326    3.23875093195957   -1.57713633049836
H        -0.96168010441992    3.46820525979108   -2.78474069267798
H        -0.08559394957642    3.84489283621589   -4.23353011668652
H         0.75556676062723    5.55028213493924   -3.25619022247288
H         1.12388404776327    1.30678624895556   -4.00472997795257
H        -0.10264212987705    1.23017221583533   -2.83700225240136
H         1.79547486417918   -0.99586319336663   -0.72320232116790
H         0.98480356908777   -1.63468438818764   -2.13778820814619
H        -0.42649428205857   -1.18019766086932   -0.17085668850520
H        -0.99347102419281   -0.21407976100054   -1.29242168389708
H         2.21953732754598    1.62603983929949   -0.39393263307942
