35
 energy: -49.727337220136 gnorm: 0.102239686745 xtb: 6.4.1 (79825abcba525fcdf90b791dcacef51065a7a4e7)
C         3.43135288318303   -1.37264502323236   -2.26419360646259
C         2.95004702420828   -0.13065857879241   -2.99992370757378
N         4.00818701795793    0.89057841933970   -3.25151215004064
C         3.86865042163545    1.72609777696846   -2.26294482696100
C         4.49684171209147    3.07357154424766   -2.09910015977526
C         3.82595917221912    3.80557143999994   -3.26760986343623
N         4.48697222049471    4.37490364342352   -4.22602907329142
N         2.44910725090235    3.92440567062099   -3.35798144723447
C         1.42629957322898    3.13379221383876   -2.64615158014571
C         0.04709421106758    3.82337434510504   -2.81016641918828
O        -0.85906687422285    3.49495148119390   -1.75685902901303
C         1.28012785356849    1.66957287324782   -3.11622291931577
C         1.91584020029975    0.66064577605503   -2.11727968190578
C         0.83421174585515   -0.11243614250145   -1.30074997746928
N        -0.41949994214712    0.63450672142040   -1.11424175614992
N         2.95814291300148    1.31841073861517   -1.30456372161383
H         3.77000931537239   -1.22867714517397   -1.23130312460967
H         4.26901558878190   -1.81045327005841   -2.81717390454427
H         2.65265627678538   -2.13232535491015   -2.17003919464948
H         2.59133512710096   -0.49013735768316   -3.97399516032691
H         5.58674922399328    3.08356062802846   -2.18076381751348
H         4.29778807441669    3.51692487343329   -1.12145530704192
H         5.50713202359978    4.34188880245077   -4.10610594679306
H         2.16474026256200    4.07400537005595   -4.32888872274422
H         1.70933590652185    3.21918383367559   -1.58824866229458
H        -0.28815753200737    3.56412601410230   -3.81963368568909
H         0.16268034981236    4.91207779829715   -2.73747556909651
H        -0.80706527361487    2.52024323187992   -1.76719940459682
H         1.67886222768318    1.60310445618009   -4.13733165323923
H         0.23955420941571    1.38547991059024   -3.32340045714100
H         1.32989469203542   -0.28558295732431   -0.34588770783309
H         0.71337131646525   -1.05247267512643   -1.85338874644940
H        -0.47910334233135    0.93489893265748   -0.14439203114951
H        -1.31304036765138    0.16433170278575   -1.26759115255692
H         2.76975472649279    2.02679417157293   -0.59819534782636
