35
 energy: -49.719690934282 gnorm: 0.115960735730 xtb: 6.4.1 (79825abcba525fcdf90b791dcacef51065a7a4e7)
C         3.60894867487713   -1.52600911624177   -2.60431112910676
C         3.09684870793338   -0.20760451423729   -3.16560196125813
N         4.07478345777199    0.90858516862363   -3.01182862581312
C         3.77135905998023    1.59826420004027   -1.95017665538698
C         4.22097258941935    2.98462683191592   -1.61402001645925
C         3.62875573400103    3.91509007599659   -2.67930850299745
N         4.31245503856981    4.78094738038054   -3.35937556895278
N         2.32021033253042    3.75410677227427   -3.10334054171518
C         1.18339721190879    2.90616136277758   -2.69523330933014
C        -0.10434971468381    3.64958743168086   -3.13529853148162
O        -0.18822665063669    5.01019810569022   -2.71085864285916
C         1.19568608280965    1.49013881357663   -3.31248586168838
C         1.86629123318111    0.41568998614099   -2.40926927301931
C         0.72203121761115   -0.44053410959970   -1.78329329861029
N         0.07409898796963    0.25544914507795   -0.66066552166897
N         2.61483474693614    1.12766432898762   -1.35459769979837
H         4.61806167706682   -1.62983356091369   -3.02047110145828
H         2.85947486564375   -2.25704125834033   -2.92528325382785
H         3.71590908163346   -1.43855528730700   -1.52114033342558
H         2.84961349367166   -0.19082808066910   -4.23579247603201
H         5.31183790272284    3.04351731787179   -1.57920734458886
H         3.78896170923573    3.24019802579989   -0.64447167882975
H         5.30484764487249    4.72094079723062   -3.09908016857432
H         2.06805968684529    4.29491392428735   -3.93391460972799
H         1.04234568879435    2.78388950089771   -1.61277593773497
H        -0.94013040566400    3.22196928295712   -2.57205705496507
H        -0.15746271070931    3.43859930993430   -4.21074372378897
H         0.66605557669688    5.44156093325655   -2.90320013324959
H         1.79328903021875    1.72316109597238   -4.20391256447806
H         0.14401257224064    1.22624502166316   -3.48789334596570
H         1.16336789699866   -1.33699909957458   -1.34853379029883
H        -0.00261496279188   -0.66873528277198   -2.57480631643551
H         0.82554143953690    0.35923385362556    0.01679998939500
H        -0.51879407320779   -0.44866693658378   -0.21829299667157
H         2.20334211901047    1.73622682769881   -0.64991408347067
