35
 energy: -49.715545503328 gnorm: 0.119141318793 xtb: 6.4.1 (79825abcba525fcdf90b791dcacef51065a7a4e7)
C         3.64066570422657   -1.29852458104954   -2.73664428370401
C         2.96184873057784    0.00061864224651   -3.14520127589495
N         3.97986772787072    1.08502614833942   -3.02866948012928
C         3.66101983909404    1.67214753030077   -1.91132758801906
C         4.24878205610620    3.01408259885621   -1.60983006803098
C         3.62756011120161    3.87886643290840   -2.71325854247332
N         4.22626225843947    4.81403846273624   -3.38158018651580
N         2.37844721735335    3.55746638160055   -3.21766792828221
C         1.18168773694325    3.02556393855993   -2.53740805335234
C         0.01952111680538    3.81009725308452   -3.19960747052752
O         0.30731484070229    5.18709293136504   -2.95567378985704
C         0.83585911434313    1.54999451401133   -2.83635443630126
C         1.75765461005003    0.44914669017402   -2.23770700225383
C         0.96268711989962   -0.78855530722073   -1.71769070927437
N         0.02932885614601   -0.30168560619820   -0.68992507108052
N         2.56169384517885    1.17494963449994   -1.23456798396365
H         4.51929122593155   -1.36723385532164   -3.38900454307452
H         3.19857297844251   -2.26430467476543   -3.00303666299880
H         3.90226560091257   -1.20025115062542   -1.68106127520123
H         2.71477603718560   -0.22043885054237   -4.19248493418982
H         5.33951477221534    3.03674500091637   -1.67658098581681
H         3.95719976435445    3.50457578024184   -0.67903997550612
H         5.17437532336745    5.04222831789037   -3.05722148094289
H         2.40227024271611    4.10639528234929   -4.08023103861593
H         1.29069491383088    3.21333176995151   -1.46064412910091
H        -0.91407588781596    3.55329554051808   -2.68865041679816
H        -0.05333117348473    3.48379735176334   -4.24466261298338
H         1.13151072947647    5.36384659184827   -3.44794052937818
H         0.76284425989893    1.46468176069627   -3.92881073011417
H        -0.17756149376668    1.36748621036304   -2.45413166459808
H         1.62555983068757   -1.50793662384701   -1.23755153126697
H         0.42357786148067   -1.20739419036089   -2.57653638323813
H        -0.16120433742972   -1.12029649044816   -0.11723854112566
H        -0.82597006785382   -0.22050997105272   -1.24207482783648
H         2.09517415406950    1.67891315270587   -0.48314692668210
