35
 energy: -49.717815489997 gnorm: 0.112528868850 xtb: 6.4.1 (79825abcba525fcdf90b791dcacef51065a7a4e7)
C         3.62001731164671   -1.55491493109481   -2.67513302613548
C         3.06467864802312   -0.22794677916421   -3.17135771473276
N         4.10499042743908    0.84145612050383   -3.16806465243939
C         3.82955729092217    1.56122920155608   -2.11883078586570
C         4.40333516329165    2.93104671323031   -1.94125309332807
C         3.68645520454314    3.94957887462332   -2.83567888992703
N         4.18675788975221    5.05003799802874   -3.30293869894510
N         2.32213415411049    3.86666018112634   -3.05875373316419
C         1.30210096963109    2.95893618199100   -2.49886409068626
C        -0.01976844902126    3.68769147424922   -2.85412288447258
O        -0.12654500513193    4.91195377444780   -2.12733092685706
C         1.22695577674111    1.55019665070179   -3.12821110946250
C         1.92134968080019    0.42417810039638   -2.30976683161853
C         0.90672759672538   -0.59026221413317   -1.69678278985723
N        -0.31466972918476    0.11881835496572   -1.28459922277665
N         2.77572147443918    1.12909821794764   -1.33370668079053
H         4.23404706160684   -1.38050412043142   -1.78360287060277
H         4.28763819278937   -1.94549831859361   -3.45029046775271
H         2.81922923972692   -2.28783906865121   -2.55719940105003
H         2.55983918385601   -0.39506159181486   -4.13256746520261
H         5.45027671056321    2.81337459403448   -2.23234379976006
H         4.37786766900336    3.30325233899146   -0.91519833755374
H         5.19739631487331    5.11221503012666   -3.12703658477120
H         1.97084426429224    4.79894517068863   -3.28972063878983
H         1.27777130254394    2.98647572556734   -1.40104374142087
H        -0.85016694918631    3.04914839960386   -2.53580123749093
H        -0.15377419365851    3.97065421303319   -3.90573777536332
H        -0.73072169152253    5.60999189477087   -2.44447533182284
H         1.86919404943934    1.52774388792939   -4.01877053728476
H         0.21550673297524    1.23018618094528   -3.41279677257323
H         1.34881460991024   -1.04516052476423   -0.81074105341159
H         0.72619253942709   -1.37648212100509   -2.44038621857233
H        -0.32686003571124    0.45717781059926   -0.32555761168706
H        -1.24279007992512   -0.26534202406989   -1.46901315623417
H         2.42923561473335    1.76041312215899   -0.61423290089104
