35
 energy: -49.722237969096 gnorm: 0.117459511591 xtb: 6.4.1 (79825abcba525fcdf90b791dcacef51065a7a4e7)
C         3.49999155791836   -1.45760967330489   -2.81879217127715
C         3.03099147320882   -0.03928331571317   -3.10840175874964
N         4.05098414128555    1.02442078505839   -2.87595702216319
C         3.66319547597016    1.68032048415941   -1.82037946446104
C         4.20022757108609    3.04080719654520   -1.50760572108883
C         3.59172198886454    3.80627817542020   -2.68874811431124
N         4.06546316003385    4.91157899348823   -3.17199156084078
N         2.41303575720371    3.37410820183550   -3.27350253622375
C         1.07197991895122    2.95693264547805   -2.82024678073190
C         0.12477331922883    3.96176567113573   -3.52575515572920
O         0.35128991468071    5.29006292836951   -3.05377784382291
C         0.89208876911997    1.43126897164898   -2.98229942890129
C         1.83890163147729    0.46500339358866   -2.21429686696419
C         1.04852072860235   -0.70034212331663   -1.54231142815958
N        -0.10870003977987   -0.26390150085194   -0.74552936699591
N         2.52567821652536    1.24407494289964   -1.16503884060533
H         4.29875124037088   -1.68942131059954   -3.53330180608120
H         2.64896804285093   -2.09346455320226   -3.08447926655002
H         3.80763413266034   -1.64829518276486   -1.78857726710875
H         2.77604703265402    0.12210694889441   -4.16465501534560
H         5.28001389019167    3.12210261381830   -1.65633269797071
H         4.05482735174440    3.25880344826371   -0.44774232865603
H         4.91402403519202    5.21567984821164   -2.67836753432546
H         2.38140909962442    3.72871389790557   -4.23223094541557
H         0.96869069282281    3.19980772228749   -1.75399028036743
H        -0.91936985670714    3.79785214548578   -3.24022936670010
H         0.32995111970543    3.98325949418744   -4.60341902279941
H         1.29811353465537    5.47448372931097   -2.90417416569983
H         0.98578611786021    1.22925387507658   -4.05769745866191
H        -0.10873678663231    1.07154754285184   -2.70775694708437
H         1.77272595300536   -1.30622277636636   -0.99836401104796
H         0.71602332764170   -1.37693297403478   -2.33940051507562
H         0.33120452523394    0.04197730071851    0.11894658635480
H        -0.59521983507186   -1.10207800278549   -0.42342111305182
H         1.89562306863959    1.90959688947014   -0.72190844528137
