35
 energy: -49.728030718826 gnorm: 0.098533610792 xtb: 6.4.1 (79825abcba525fcdf90b791dcacef51065a7a4e7)
C         3.41142674281024   -1.48430024136628   -2.35592322221593
C         2.88415693243598   -0.23267678613774   -3.04215185247025
N         3.97659865384084    0.74803717516055   -3.30795859145923
C         3.94080788926514    1.58306354692874   -2.30982112831912
C         4.64154683766547    2.90283667020228   -2.24410387414837
C         3.82008775503740    3.82602092011324   -3.15199042347249
N         4.23745359749780    4.93753350320023   -3.67159636523128
N         2.47827632955382    3.63954608417349   -3.43970393461729
C         1.32892602573502    3.10532723046697   -2.68372042263893
C         0.05662557952837    3.81627439562861   -3.21328396898196
O        -1.13763584564229    3.22681640917297   -2.69876973987237
C         1.09792490684430    1.60341508123060   -2.96151521735244
C         1.94068823299732    0.61210500515444   -2.10886872803615
C         0.97934300290069   -0.09263537793397   -1.10216473345755
N         0.23520331923700    0.91077955992041   -0.32504403629220
N         3.00470383128228    1.28340662372962   -1.33635211540119
H         3.89527513602523   -1.31648859061748   -1.38638329733829
H         4.16742764062576   -1.89436579342952   -3.03375134987044
H         2.56407176815046   -2.14543334457886   -2.16294592510225
H         2.32348483788990   -0.50809619759524   -3.94575872572620
H         5.62866004143413    2.86647355226386   -2.71202735728432
H         4.72277677897299    3.23883378754587   -1.20849698820399
H         5.24478494725916    5.14027920354798   -3.65222391587457
H         2.17060630997359    4.19385267905211   -4.24219315851577
H         1.38869801417842    3.29995286567415   -1.60431870943393
H         0.03148131447192    3.51286857494029   -4.26492092001467
H        -0.01869656880489    4.90179870023970   -3.07227728131049
H        -1.56466863464401    3.70150832202685   -1.96040814509615
H         1.42887843838815    1.40232782875941   -3.98918437744257
H         0.00929450761983    1.48396361232711   -2.87761002331570
H         1.59665911211646   -0.71159802074777   -0.45158849884160
H         0.39239157138126   -0.75708807511551   -1.74843971278957
H        -0.73690835329175    0.91026154409810   -0.62403428401659
H         0.14744534968142    0.69542975608804    0.66939957027826
H         2.62929538987533    2.00069614535937   -0.71924779941827
