35
 energy: -49.721023700080 gnorm: 0.101311097816 xtb: 6.4.1 (79825abcba525fcdf90b791dcacef51065a7a4e7)
C         3.38775418055514   -1.44968973034887   -2.27073047382453
C         2.90101111657161   -0.19360645650486   -2.97841716902361
N         3.96399212445799    0.82624591392049   -3.21475280359301
C         3.85392333011091    1.66808065093985   -2.22782446652950
C         4.55789542697336    2.98773939652531   -2.23671114002165
C         3.92035063631226    4.01909216134555   -3.17541783330142
N         4.55208442630228    4.95363231993614   -3.81353372364470
N         2.54225208508048    3.96878317367925   -3.30318012193725
C         1.48952994131838    3.20206119388786   -2.60904724989198
C         0.10054320126277    3.88500005638423   -2.70361031688645
O        -0.77099410626578    3.19952272143941   -1.80417187916257
C         1.30792685912278    1.75623756086554   -3.12177123486662
C         1.84738947096635    0.65001994920711   -2.17034367426372
C         0.77812314581725   -0.19594723351965   -1.41185463292653
N        -0.54092948322411    0.45562384195420   -1.41942273469898
N         2.85920906646459    1.32176483876893   -1.33097672679197
H         3.36614562039457   -1.33999744398660   -1.17996085735995
H         4.42080970744340   -1.72156735849469   -2.51160578746291
H         2.80834502023823   -2.33241617084877   -2.54898705724160
H         2.40971144737717   -0.56088811602932   -3.88970375912796
H         5.56659388745233    2.67582443469457   -2.51938339263719
H         4.58966657370678    3.42029253157118   -1.23478181892030
H         5.54747582161422    4.94565135228229   -3.55793670216576
H         2.34255346120430    4.76298990091061   -3.91576621604676
H         1.70395460676502    3.32133672666009   -1.53836742175112
H        -0.23752834254564    3.88541327762214   -3.74492441612630
H         0.12237242533764    4.93610422930809   -2.38956759536693
H        -0.61870770077295    2.23790194958756   -1.87461052361836
H         1.78616351926640    1.62567646971255   -4.10172721027502
H         0.28839624345026    1.39159987675009   -3.30622057591781
H         1.10072670512228   -0.30047466629339   -0.37626575451077
H         0.71339656470065   -1.20580975746616   -1.83572827242373
H        -1.09955081805265    0.34419985273741   -0.57685319051208
H        -1.04338525083597   -0.04599901006258   -2.15352613646023
H         2.60407772247927    1.99036078998169   -0.60700094452522
