35
 energy: -49.723348238666 gnorm: 0.107307130723 xtb: 6.4.1 (79825abcba525fcdf90b791dcacef51065a7a4e7)
C         3.55984362871178   -1.43034051113931   -2.20746304619332
C         3.08011335913454   -0.20649487495140   -2.97397800218038
N         4.04931465135638    0.91779891414968   -3.12395910745317
C         3.84787448341024    1.77872929433397   -2.16842305308938
C         4.27593977050113    3.21092769333181   -2.11624280383898
C         3.50884634586820    3.82664736356922   -3.29258423166403
N         4.09727313145978    4.51662504244561   -4.21850514834940
N         2.14368144086906    3.73588656970098   -3.50728661014541
C         1.19108144352386    2.90565950984261   -2.74493285188753
C        -0.15641553762438    3.67217676560727   -2.70839514524745
O        -0.09175136676664    4.84821971043835   -1.90143325690278
C         1.13395218357185    1.40854058540140   -3.12128733188458
C         1.94259477767132    0.50174488382608   -2.14980887366039
C         1.01132590934108   -0.51124272296609   -1.41435598932142
N        -0.16988097711122    0.11813246137274   -0.80350483403802
N         2.88394077827697    1.27348528895279   -1.31443986365176
H         3.83230283486988   -1.24950942806680   -1.16087631777352
H         4.45154280677033   -1.83450433031065   -2.69804052763550
H         2.77924812257948   -2.18896407215379   -2.12081077115754
H         2.83512333071952   -0.54733639509810   -3.98912398265155
H         5.30588140372458    3.40692070937909   -2.42523165447599
H         4.11542609723949    3.68953054173037   -1.14817841423054
H         5.11972929490127    4.49434304346736   -4.11709274321344
H         1.96638073026917    3.80548887171554   -4.51208787280323
H         1.45786471156265    3.09469022151885   -1.69628897979918
H        -0.90407751191256    3.01344130031447   -2.25485710710937
H        -0.43068795512227    3.91288880678069   -3.74316646322844
H         0.63013219490605    5.42681203742612   -2.21285307349453
H         1.59154863868506    1.35184258047021   -4.11801248397848
H         0.11468167710260    1.00310431254714   -3.17726880816574
H         1.56568948112240   -0.98892846744909   -0.60692753022146
H         0.61042958167838   -1.26087928511137   -2.10790329203699
H         0.10843200790141    0.44534497970559    0.11837931729155
H        -0.36074874774734    0.95898445378597   -1.35080046431016
H         2.41893356711847    1.79949434816046   -0.57732641287748
