35
 energy: -49.720338616666 gnorm: 0.104893443237 xtb: 6.4.1 (79825abcba525fcdf90b791dcacef51065a7a4e7)
C         3.66016948012179   -1.40400834111707   -2.74714156244884
C         3.02209692200279   -0.11154526621101   -3.23487824553686
N         4.02659675561973    0.98991067393247   -3.17440585296284
C         3.78034004254934    1.64125810974875   -2.07443650063996
C         4.32453501432303    2.96842540931645   -1.65060429656482
C         3.62716822576766    3.90968849681598   -2.64006148896558
N         4.29985295161832    4.81201671442527   -3.28266856710511
N         2.30221212791420    3.85289833598667   -3.03915550958167
C         1.18791140344900    3.00956476373596   -2.56478293312935
C        -0.18487258793552    3.54398707964901   -3.04902330390169
O        -0.28819377620106    4.96130065832296   -2.91120854003040
C         1.12859078600419    1.55940770947445   -3.09374146166314
C         1.88334296166975    0.45029485327331   -2.30623302431459
C         0.93796492586311   -0.57607654136879   -1.60829412126103
N        -0.01140101589662    0.23237912019696   -0.82752159438676
N         2.76427170254172    1.09399010302158   -1.31165877186768
H         3.18307740281840   -1.64061134793223   -1.78866367871497
H         4.75437934299278   -1.36106651387735   -2.74545065091813
H         3.26802909394298   -2.13262053344196   -3.45967076555221
H         2.62424911397601   -0.28756022778187   -4.24356565150082
H         5.40670038563206    3.09175106144488   -1.74212493638674
H         4.17656809507510    3.09090328896281   -0.57585830240850
H         5.28720541151585    4.72076478770949   -3.01247275749870
H         2.11132416809122    4.28253665615587   -3.94738361504046
H         1.18675443346852    3.16870965768688   -1.47793820985279
H        -0.93679769372959    3.10961430630541   -2.38227258035009
H        -0.44530076646802    3.24571990660483   -4.07231856206230
H         0.53602676209141    5.39440980503772   -3.20437100651392
H         1.58210462673656    1.47907429701590   -4.09070783957550
H         0.06993119663565    1.26860509729367   -3.06059641882323
H         1.53091560510214   -1.28240228811213   -1.02781432217164
H         0.45938006332154   -1.14926656784905   -2.41209163291232
H         0.44802389649402    0.57861934839712    0.01119349119937
H        -0.84713493527167   -0.28112059466742   -0.54315924603457
H         2.36109459752182    1.61276010542515   -0.53411173444397
