35
 energy: -49.719831697932 gnorm: 0.106775015542 xtb: 6.4.1 (79825abcba525fcdf90b791dcacef51065a7a4e7)
C         3.79519151143003   -1.31754938425234   -2.76081096836320
C         3.01124717695042   -0.08273723184650   -3.18051884200017
N         3.97944928047867    1.04150742688453   -3.02386425194793
C         3.74009342715300    1.58974865334814   -1.86759059385350
C         4.26636736647925    2.97624204422368   -1.67309954665311
C         3.62069629967692    3.87710039406972   -2.73276237801656
N         4.22166677905006    4.79390947338881   -3.42409472669887
N         2.29017772657284    3.67923466198910   -3.06227616801704
C         1.13440718233679    2.95341483004665   -2.50077191577355
C        -0.13295156832511    3.71278221001079   -2.97172289938958
O         0.01228567786650    5.13185639053082   -3.03156078931891
C         1.17496603440059    1.52243836210758   -3.08123113294829
C         1.85786396538400    0.41223157360210   -2.23208860324550
C         0.89310194131345   -0.66005708194513   -1.63733834779664
N        -0.24307392316052    0.00257708499947   -0.97815525194435
N         2.68442915097110    1.02581133129457   -1.17385099053727
H         4.16581000919163   -1.13002247451642   -1.74604337150970
H         4.61680393093360   -1.42389005423396   -3.47690229078527
H         3.20053237860878   -2.23299393336277   -2.78706863106725
H         2.59587019660035   -0.14557723462020   -4.19552009024337
H         5.34678819259599    3.05935610305375   -1.81610317053655
H         4.11726487648990    3.43546166972993   -0.69388568377222
H         5.24840890563934    4.77301707670685   -3.38457665436180
H         1.97341409641490    4.22944651781954   -3.86404504001546
H         1.24309887436347    2.99644082054828   -1.40857469069584
H        -1.05578263061144    3.58063814829851   -2.39765986078477
H        -0.20888649740415    3.41107076489536   -4.02392222901309
H         0.89797599175187    5.36487377701306   -2.69374008751780
H         1.58744865741058    1.59230180260655   -4.09663618081591
H         0.15589068865073    1.21100954201099   -3.34754375656475
H         1.37166755031121   -1.33385720405263   -0.92711886222319
H         0.41777436592491   -1.15493443702779   -2.49339957153805
H         0.04087284128847    0.72521395995310   -0.32121787136701
H        -0.75513723607605   -0.77444615825579   -0.55741645876463
H         2.18549533465376    1.59995617997400   -0.49733326498336
