35
 energy: -49.724303038808 gnorm: 0.119268563287 xtb: 6.4.1 (79825abcba525fcdf90b791dcacef51065a7a4e7)
C         3.80429145157619   -1.38730125221538   -2.67500156377922
C         3.09660734882343   -0.12678909785396   -3.15016124674174
N         3.95553498060486    1.09299374003753   -3.13418847908342
C         3.67615329224556    1.70266749538360   -2.01836045341260
C         4.12873422129780    3.07942104144882   -1.64839413210020
C         3.57509190515709    3.91261637081772   -2.81054209664851
N         4.21437547192586    4.84190306514147   -3.44881128119221
N         2.38858916004624    3.48896874929636   -3.38564534996609
C         1.21683964238926    2.88934407437148   -2.71829216280084
C        -0.00951226209965    3.75448796162482   -3.10844455120128
O         0.12176336418535    5.03979099439453   -2.50081902535130
C         1.07603252932356    1.42144756597292   -3.17842768970938
C         1.84802890462933    0.36925533706510   -2.33174903543025
C         0.88214817932902   -0.59092250975111   -1.57054642902796
N        -0.05597640947107    0.08119708241375   -0.65803371718266
N         2.65844697235632    1.07697859489830   -1.32085474970281
H         4.71067212055762   -1.36114491607432   -3.29149780024586
H         3.15942893647916   -2.24193412321281   -2.90499518381156
H         4.01144010234066   -1.33611958837088   -1.60410589590293
H         2.74740685293572   -0.18660369425230   -4.18996682265562
H         5.19984227043825    3.19841871125445   -1.46609159749625
H         3.63255833242895    3.31259727376854   -0.70424778476106
H         5.11550274342888    4.93211334600888   -2.96298279889543
H         2.07203700529084    4.08235065070975   -4.15609862156741
H         1.18534341430190    2.92733901944106   -1.62096621234142
H        -0.87157677493409    3.24276230932188   -2.66843406474860
H        -0.05858802825834    3.77398742250636   -4.20440562171312
H         1.05951976657220    5.30134459013454   -2.57202230401284
H         1.25360420454547    1.26800473478339   -4.25127147042571
H         0.02234171811658    1.20882429638672   -2.95270243072932
H         1.44526213300556   -1.26766490366226   -0.92838932645908
H         0.34287346409295   -1.15289473373562   -2.34323698122003
H        -0.53847565785094   -0.55542291143615   -0.02850533066460
H        -0.81181186557460    0.62966908638852   -1.07141767773147
H         2.32905776297810    1.50561417280764   -0.45828431681762
