35
 energy: -49.725063082146 gnorm: 0.109749624173 xtb: 6.4.1 (79825abcba525fcdf90b791dcacef51065a7a4e7)
C         3.67672456729336   -1.49294266576258   -2.52205972729797
C         3.02252522871258   -0.22400132535438   -3.04864833649594
N         4.04054177073430    0.86659032251467   -3.03706390158916
C         3.68959272772160    1.63410440863010   -2.04580948329203
C         4.23756198723535    3.00527029099402   -1.80750559400316
C         3.56175090860779    3.97387066836539   -2.78547024230536
N         4.23808815578758    4.88965174305498   -3.40479062657115
N         2.26175613081056    3.71196241848032   -3.18475392265977
C         1.09475272235177    2.97488622886981   -2.66251959231384
C        -0.10915352307364    3.74984832489415   -3.25806584392630
O        -0.19418302881875    5.14212618652850   -2.95347055004137
C         1.11571369632601    1.50760723502537   -3.14514215944735
C         1.85058671562627    0.46385494413651   -2.25604456695064
C         0.87751296235351   -0.60943261967865   -1.67684004989673
N         0.18045955981706    0.01492999897715   -0.54159123749951
N         2.65673044189662    1.17819819210071   -1.24638967966911
H         4.62298932163734   -1.62101174438166   -3.06100222260366
H         3.09843383981414   -2.42230160685953   -2.49021832780879
H         3.94107053430189   -1.43203087810393   -1.46434585559309
H         2.72079751710560   -0.40442265135302   -4.08938027467272
H         5.32864803641054    2.96994287972311   -1.86182256191965
H         4.11604148482704    3.25199300625422   -0.75093819733043
H         5.22254380076673    4.89581625072709   -3.10982173708125
H         2.11836295015415    4.14569879896016   -4.09974941053977
H         0.96668718980635    3.14112803074533   -1.58431610335371
H        -1.07510468004534    3.37002193764738   -2.90978740214448
H        -0.23188677118720    3.60444369931570   -4.33867371560767
H         0.72314901929377    5.45765574119692   -2.84479546317040
H         1.52954731832230    1.53805111230128   -4.16194357791079
H         0.10400510908170    1.08750900204944   -3.22506771230897
H         1.41233392655026   -1.52316826412415   -1.41896977659340
H         0.13399637299066   -0.95267199402773   -2.40694314409819
H         0.87922776153201    0.34793357280080    0.11812700670219
H        -0.37450915939032   -0.62601003430208    0.02779499559223
H         2.10664462593663    1.88928037823988   -0.76887400805601
