35
 energy: -49.718154559481 gnorm: 0.107478615297 xtb: 6.4.1 (79825abcba525fcdf90b791dcacef51065a7a4e7)
C         3.04481737692518   -1.52726462511604   -2.32426958153453
C         2.70127112308197   -0.27413089941453   -3.11617634021458
N         3.83467726851731    0.62816847411097   -3.47272699786572
C         4.02383121846242    1.50485973225469   -2.52908424731337
C         4.81363636828658    2.77472796911150   -2.50084566042747
C         3.89158385190564    3.91939380208601   -2.93774548058337
N         4.36548398398798    5.03564958303012   -3.39495058133230
N         2.53818355381469    4.05207649802145   -2.67561429208669
C         1.38734118104793    3.20286410284927   -2.31187384632143
C         0.13760893797097    3.93564121720847   -2.86490086175465
O        -1.08538617610331    3.46075146766234   -2.30168807589912
C         1.31640144799392    1.82967112768002   -3.01584841425717
C         1.99362810878504    0.73664908093602   -2.14028081144011
C         0.96916003431818    0.27596706975567   -1.05744477787475
N        -0.29154863731046   -0.12939546277309   -1.69837914262316
N         3.16388854430563    1.32627049989995   -1.46028515570954
H         3.79726144965043   -1.26741416059903   -1.57022492585626
H         3.35765584860147   -2.35234054784286   -2.97274772294676
H         2.15526883618969   -1.89652025814913   -1.80977823515398
H         2.09143911580314   -0.54101305797389   -3.99001458223306
H         5.82203531739518    2.69799520328657   -2.91546688449706
H         4.88652586043055    3.05478688604093   -1.44812150682454
H         5.37087556779000    5.10016082670281   -3.59798659665166
H         2.30044797263801    5.03147062616849   -2.84932248448269
H         1.35251024963827    3.08466635385501   -1.22037213129586
H         0.15804973734447    3.78594234967888   -3.94924399199317
H         0.05435731230396    4.97171848773069   -2.51342910808113
H        -1.17598180996170    2.51529993391776   -2.52703467666910
H         1.87272013943428    1.89018217289389   -3.96079188407855
H         0.25712831555234    1.60199900204013   -3.19621117401013
H         0.66773395223427    1.11545286390261   -0.43146610750144
H         1.38033850406989   -0.54256180567083   -0.45360417839881
H        -0.92167243735172   -0.47261348042229   -0.97758657085723
H        -0.03502644067442   -0.94425071378508   -2.25802400551206
H         3.01255232877587    2.15156588786016   -0.88388392933396
