35
 energy: -49.722567753541 gnorm: 0.121122923917 xtb: 6.4.1 (79825abcba525fcdf90b791dcacef51065a7a4e7)
C         3.62645518293999   -1.48196676745990   -2.66640219740575
C         2.88230976438048   -0.23766671152198   -3.12840800458143
N         3.86004495568709    0.87785218464268   -3.28819995269763
C         3.70087593077949    1.60195043883907   -2.21807129402216
C         4.39220754419712    2.92200455607737   -2.08894867723480
C         3.53309321951420    3.89596069680556   -2.90421195418926
N         3.87915146958343    5.06511486849615   -3.34349207279634
N         2.38462345039990    3.36759277159391   -3.46976866323467
C         1.20589971047608    2.98137493523429   -2.67017306536352
C         0.00376304559423    3.85828654574450   -3.10666507210848
O         0.25024703221595    5.15209886625977   -2.55553779499655
C         0.99733793728779    1.47321680929587   -2.93138667968538
C         1.84368995017544    0.42671737927305   -2.15133615320196
C         1.03276760011799   -0.53907444658852   -1.23266996408094
N        -0.10686969480074    0.14227940870832   -0.59904097148804
N         2.79419785465065    1.14423840412185   -1.27883674755681
H         4.04464164641985   -1.33934904872861   -1.66287943307671
H         4.41148814937432   -1.83166508031484   -3.34505998777247
H         2.95642138044383   -2.34380657195085   -2.64121268777701
H         2.49099651788332   -0.46711598941325   -4.12887857631414
H         5.42024672571978    2.82608046760732   -2.44755868972914
H         4.30716306308985    3.31665110785867   -1.07455450425650
H         4.87276360751879    5.20628753827009   -3.12212639134312
H         2.20426353798402    4.04777549708551   -4.21187874690258
H         1.43540134202610    3.16392318755326   -1.61160563206823
H        -0.99573015542866    3.52993331880738   -2.80363853993700
H        -0.13939089853888    3.93096943831695   -4.19208824481859
H         0.73831199163075    5.76337623199064   -3.13948970714130
H         1.16342153257971    1.14268569235190   -3.96542517657447
H        -0.05392883169427    1.22046997995912   -2.73804223687215
H         1.72905177546889   -0.96499105575115   -0.51070962877276
H         0.64532452874885   -1.39147250524974   -1.80449694951807
H        -0.84823081319230   -0.50763622613778   -0.34926128762089
H         0.22025814438835    0.59975740560937    0.25342388946888
H         2.44461734686982    1.85965728773886   -0.64462640096970
