35
 energy: -49.718318738892 gnorm: 0.099002434130 xtb: 6.4.1 (79825abcba525fcdf90b791dcacef51065a7a4e7)
C         3.29240409143349   -1.47430999152023   -2.47558545716584
C         2.94458267759167   -0.07177709343815   -2.95245671514582
N         4.09767464364133    0.87129809818462   -3.03534289881776
C         3.93653409607720    1.70044005025167   -2.04469372861119
C         4.51998039563560    3.07597379016908   -2.11290142568991
C         3.79839943955418    3.77632996759511   -3.27054746541299
N         4.48917576392042    4.27615383133439   -4.24658486103359
N         2.42896542436584    3.98145388390814   -3.29472414187551
C         1.33804549732286    3.23394293159920   -2.63972178741266
C         0.01276603442336    3.94448375353668   -3.01840098584554
O        -1.15294796123484    3.28828412621852   -2.51944317985070
C         1.23152948053783    1.74653747928208   -3.04289783679915
C         1.92147359613655    0.74133243177701   -2.07672412301170
C         0.99593729887406   -0.21811200228396   -1.26607899349061
N         0.00113713935431    0.54755350339766   -0.49885610535816
N         2.91228908811301    1.36508664043611   -1.17740643461425
H         3.83972469359669   -1.33077712996239   -1.53637506378048
H         3.98410948848143   -1.96527900082457   -3.16814242974947
H         2.43930759635606   -2.14259854525457   -2.34155393693691
H         2.53861259245452   -0.16452381734401   -3.96897074459981
H         5.57260432771576    3.02848068620784   -2.40340858811054
H         4.56289974038153    3.69756466258598   -1.21637662829118
H         5.44726874884691    3.90761984883760   -4.29596202861613
H         2.07769342129921    4.52431084317839   -4.08707501312373
H         1.49648604157220    3.21670056463597   -1.55291030774864
H        -0.10067171970989    3.79455844152296   -4.09695644519439
H        -0.10280828137389    5.01620903299875   -2.81354291046731
H        -0.99555263010164    3.03852677775206   -1.58900498308815
H         1.64664535421443    1.79937515847258   -4.05825846793526
H         0.16708193619873    1.49167866260149   -3.13467630906442
H         1.60123036259820   -0.82600197161200   -0.59411659927362
H         0.66055519093337   -0.94039661138424   -2.02073421274716
H        -0.30744641679536    0.18789567803250    0.40104331959268
H        -0.73910800834313    0.84462002329314   -1.13665206892281
H         2.63399302778180    1.81588044961798   -0.30815979352599
