35
 energy: -49.719804846317 gnorm: 0.111719591151 xtb: 6.4.1 (79825abcba525fcdf90b791dcacef51065a7a4e7)
C         3.78001697759342   -1.36596442896631   -2.53376286604438
C         3.07161233651453   -0.14463673117638   -3.10121855116809
N         4.08832140694982    0.94657198455468   -3.06316311566063
C         3.84973015079651    1.67407656251610   -2.01024348691617
C         4.32021469693197    3.08607476554256   -1.86171622144970
C         3.56527936548698    3.65922505448676   -3.06707659877054
N         4.05587735907571    3.72065481122494   -4.26506860261128
N         2.21262076262433    3.95594269305144   -3.05024660414287
C         1.19734349974116    3.00539438023376   -2.55671138969089
C        -0.14773299086274    3.73653443414642   -2.80335953074798
O        -0.14238063913476    4.93452271463927   -2.02667336741801
C         1.22373431662905    1.58357647783762   -3.16004291502968
C         1.95429109943861    0.55868548589806   -2.24580174083665
C         0.92130501667057   -0.38381417999462   -1.55375357294667
N        -0.21327071001815    0.31968750699037   -0.93542902081230
N         2.80329348646167    1.21389806084309   -1.23118439170041
H         3.81145965854149   -1.19859057860594   -1.45058465551949
H         4.77438532364492   -1.35973598568628   -2.99238567331208
H         3.17866223971297   -2.26466812887185   -2.68559106476184
H         2.71994499400507   -0.30479496280911   -4.12951512154254
H         5.38521459460962    3.23866261024331   -2.05448376067707
H         3.96204892589841    3.50426521103887   -0.91895005330527
H         5.05914752857007    3.51596251512184   -4.35308906351078
H         2.00045515559217    4.44400369167142   -3.92356661042472
H         1.42154154063546    3.10211338944159   -1.48575827549083
H        -0.93607842779517    3.12041141073963   -2.35891438074696
H        -0.37403707564227    4.03665142920792   -3.83420170060936
H         0.27697439342644    5.69779012589981   -2.46761721398758
H         1.75038299728724    1.74498595332275   -4.11012625560134
H         0.19645501396665    1.20519509547864   -3.24920366476435
H         1.42420725826297   -1.09316398981036   -0.89697695127101
H         0.54977031479405   -0.97877998950442   -2.39735203102901
H        -1.06837852699644   -0.23020236359819   -0.96385936943521
H         0.05398459359013    0.52336002946729    0.02898125926393
H         2.40267259851174    1.94379482853015   -0.64551630957817
