35
 energy: -49.723745857823 gnorm: 0.110195550328 xtb: 6.4.1 (79825abcba525fcdf90b791dcacef51065a7a4e7)
C         3.55165644397570   -1.44036708593279   -2.80419455134318
C         2.98955289631430   -0.08147005951700   -3.19524810770088
N         4.08490397732604    0.87447002432543   -2.86018613243118
C         3.68467052146141    1.56205478291175   -1.82971597612536
C         4.06515201598438    2.97284886082138   -1.51026525131113
C         3.50950776763622    3.88785475678693   -2.60814768043988
N         3.94223084455106    5.05471568726202   -2.96985349350249
N         2.49707360504696    3.37617298262433   -3.40260892744833
C         1.24973662105971    2.89717328749051   -2.77601757181528
C         0.16052756982276    3.87105067876608   -3.29545794228352
O         0.55098432831053    5.24401946765363   -3.26469797135329
C         0.91282667676227    1.43098390906356   -3.12680512649144
C         1.75954335572734    0.39243653382578   -2.33658879776902
C         0.89470504903948   -0.67737013345590   -1.60047407366982
N         0.06663188957008    0.00998619709719   -0.59731004229557
N         2.47765348727395    1.15092119193379   -1.29324045679759
H         4.43021617217323   -1.61828166532047   -3.43566654884545
H         2.87623566698307   -2.27469965703436   -3.02061544739765
H         3.83735046504330   -1.29358150912760   -1.76055640268670
H         2.78472187345346   -0.05412865105947   -4.27414156238939
H         5.15001873721376    3.09949809304711   -1.46914001973289
H         3.67955547511530    3.32030136267808   -0.54976223580276
H         4.74212315323172    5.37760541754604   -2.41118357600318
H         2.26207881756336    4.02519984715349   -4.15722617009099
H         1.31157815414150    3.14069928877558   -1.70670443111263
H        -0.67910845752290    3.70423982779252   -2.61295294075301
H        -0.10332152034100    3.55070888130560   -4.31117646652681
H         1.40335506769551    5.47105408450616   -3.68277292036222
H         0.81561939550041    1.12539452873600   -4.17715556818214
H        -0.07373575314815    1.30172721647407   -2.66160392919876
H         1.60566724343400   -1.42755544421668   -1.25522329134822
H         0.27741464006062   -1.21601740598548   -2.33019481058909
H         0.65045596172556    0.17605023315486    0.21875902632931
H        -0.69049462596542   -0.61527116172634   -0.31658284746595
H         1.88470556146934    1.70447638580532   -0.67822593846939
