35
 energy: -49.723131772050 gnorm: 0.108008792521 xtb: 6.4.1 (79825abcba525fcdf90b791dcacef51065a7a4e7)
C         3.51013009947588   -1.34619652650656   -2.45744892165984
C         2.98707220432721   -0.05911855886480   -3.07819458525029
N         4.01268903917092    1.02160492312744   -3.00054884304152
C         3.70890186178419    1.77905153258402   -1.98624297033955
C         4.24477982447432    3.17527712616132   -1.96292291914398
C         3.86698666411750    3.74249594817264   -3.33655216776245
N         4.62032703292886    4.29609333137943   -4.23413392287515
N         2.49744815810596    3.74397033395885   -3.54239658108717
C         1.41207305071727    3.14901302645992   -2.73872151869971
C         0.22709727909105    4.12530500452855   -2.95624897403023
O        -0.87190017151726    3.84208595401480   -2.08997100726375
C         1.03320852882837    1.66384126343361   -2.93107012361813
C         1.86839899494342    0.58717865712088   -2.18059948926907
C         0.88689034295940   -0.42178895653095   -1.50760493766333
N        -0.03894354232303    0.34493927259091   -0.65939422347000
N         2.71994555124134    1.25255501700774   -1.17476665133480
H         3.75666578859297   -1.16570336570894   -1.40439619156568
H         4.44844139010093   -1.61440508615443   -2.95421664603565
H         2.96620563951524   -2.29121267618433   -2.51608607647138
H         2.71555340249548   -0.25849012662117   -4.12377716237842
H         5.33728414247019    3.20794360948749   -1.95706177688197
H         3.75389954289788    3.72106702020117   -1.15476208311015
H         5.62326008438411    4.34113455606523   -4.01437464932462
H         2.23274651432075    3.75729376340514   -4.53015217461138
H         1.64937466699478    3.25717206891720   -1.67169319712454
H        -0.09174532275130    4.16864234716431   -4.00271390546504
H         0.50756535355387    5.18043411263542   -2.84688928661139
H        -1.23124584678152    2.93451455636304   -2.09718902006294
H         1.13976465647622    1.40405866163819   -3.99278053089307
H        -0.01334998281780    1.66067157011675   -2.59770831993409
H         1.53487916550195   -1.06670601131806   -0.91461603459969
H         0.24686083448967   -1.00681912050796   -2.17975271482947
H         0.43271896898883    0.46572842711513    0.23354530190088
H        -0.83778910549331   -0.26043807927901   -0.46353939193661
H         2.27880079951512    1.86232303641216   -0.48932682986572
