35
 energy: -49.712559633134 gnorm: 0.126532334000 xtb: 6.4.1 (79825abcba525fcdf90b791dcacef51065a7a4e7)
C         3.69458924914037   -1.28895512348793   -2.61856132361479
C         3.07904169801800    0.02462577652788   -3.07800759428568
N         4.06002354766535    1.14221401625140   -2.95737118294889
C         3.62028796216418    1.75911577961974   -1.89864871134100
C         3.98780732483490    3.16830720433499   -1.55767359704937
C         3.59907187943246    3.78844052023594   -2.90513107312868
N         4.43714484258065    4.50516185362293   -3.58600483104747
N         2.36389036449870    3.62596556510316   -3.51005948774992
C         1.20132316088968    3.02231346485935   -2.83039146818716
C        -0.04341826609157    3.88768151172200   -3.15656434936571
O         0.22467156063587    5.14065096506647   -2.52676965590214
C         0.98491771517732    1.50437388202069   -3.01827337895144
C         1.84277379196178    0.48181325439029   -2.21927126162476
C         0.96547205676684   -0.68806692184673   -1.67519536273152
N        -0.16533182766789   -0.26970737168603   -0.83212963311375
N         2.56723211781219    1.23090788024394   -1.17353022351509
H         4.62928659013982   -1.46192498871440   -3.16509585067584
H         3.14274258911324   -2.21139726895458   -2.82762549809900
H         4.07826442862004   -1.22438100842053   -1.59828135922480
H         2.75985422225321   -0.05283625012547   -4.12626014520079
H         5.03248045020492    3.32431102163237   -1.27662553037871
H         3.40662980383007    3.49959884554517   -0.69485695894435
H         5.35729849987485    4.54504774177105   -3.13001806098655
H         2.57871550956631    3.32594868961339   -4.46386535815233
H         1.32395984906007    3.16692982435654   -1.74844588522878
H        -0.87785584173981    3.38110784770399   -2.66085813332850
H        -0.36133138955282    4.07238791796881   -4.19036032023841
H         1.13662607890706    5.38829887279048   -2.77146688162857
H         1.04084963016892    1.29462994179493   -4.09481845710650
H        -0.06388834027286    1.18923802413505   -2.93389266616962
H         1.56164193130689   -1.46574826790827   -1.19850200815589
H         0.50308409921736   -1.11917476703583   -2.57186928060551
H         0.06661441078900   -0.38536328048765    0.15134440837461
H        -0.98416775357531   -0.87855664368209   -0.78963997577255
H         1.99550329325938    1.79855691982321   -0.55131305281085
