35
 energy: -49.724727557725 gnorm: 0.114147887146 xtb: 6.4.1 (79825abcba525fcdf90b791dcacef51065a7a4e7)
C         3.77033813429507   -1.25381182918714   -2.92330511718666
C         2.96379160700361    0.01515525046490   -3.15716333142263
N         3.98979716156569    1.07594054963156   -2.93823606988365
C         3.66690052892071    1.71154875676155   -1.84893886589913
C         4.21798051504094    3.05376413346062   -1.48572586766139
C         3.68253961292287    3.85710942070321   -2.67705352292346
N         4.28239895783454    4.76866874189370   -3.37624817905569
N         2.48759671266120    3.39170649552391   -3.20004626575619
C         1.17756130734736    2.98299218052944   -2.65721407692147
C         0.00335756048292    3.75745195353106   -3.30996933779842
O         0.20228838195335    5.16338547570938   -3.16089415128006
C         0.80871063945378    1.49245629286755   -2.82610297562167
C         1.79520513606464    0.46303598124241   -2.20395019677030
C         0.91668543501720   -0.69410270762848   -1.63515347518123
N        -0.22272799323604   -0.25116795102366   -0.81658900204186
N         2.60712944485145    1.13627190480812   -1.17095008442821
H         4.75618618156017   -1.20459523080592   -3.40075566600830
H         3.18966835417150   -2.15506936481581   -3.14623903599653
H         3.98979794541367   -1.34960287768801   -1.85793704510595
H         2.56874374490925    0.06956791526163   -4.18073104273175
H         5.30382375358226    3.17731851782490   -1.46712709738762
H         3.71974355831252    3.32260899082534   -0.55220758594808
H         5.28054167531860    4.84161350347493   -3.14260798328979
H         2.36808788364996    3.75110233627557   -4.15002409054855
H         1.15679369214194    3.22952221190674   -1.58700310432532
H        -0.89300651131161    3.56265554292880   -2.71229601496759
H         0.00675161692436    3.43423191207429   -4.35850956723848
H         1.00860700718790    5.52002730594517   -3.57985016067084
H         0.55996381715558    1.37851074520431   -3.88968730326546
H        -0.08482983802241    1.33794012333730   -2.20631668579340
H         1.53080676450236   -1.32703711080035   -0.99508130164544
H         0.60089271516627   -1.34322754318292   -2.46134510022237
H         0.06806860544083    0.42049026213699   -0.11039560262589
H        -0.56438261653680   -1.10624999305159   -0.37488558942031
H         2.05165196465057    1.75493383453798   -0.58362081396436
