35
 energy: -49.724278557300 gnorm: 0.121375688285 xtb: 6.4.1 (79825abcba525fcdf90b791dcacef51065a7a4e7)
C         3.67034382908658   -1.35216287382779   -2.77132280940640
C         2.98541963290752   -0.03522750165121   -3.10605329327436
N         3.97842053072193    1.05667394416046   -2.88791927232685
C         3.59282498525443    1.68848207122144   -1.81695569021363
C         4.15558829125176    3.06313805886189   -1.64153242396324
C         3.65513492221845    3.76615197820538   -2.90906547726862
N         4.10758269599810    4.86978308490938   -3.41595225114085
N         2.45989989683719    3.37006999814388   -3.48573014217973
C         1.22010194816865    2.98051791530040   -2.78640391487981
C         0.04498359781321    3.92461231702602   -3.15029183392634
O         0.18869463266052    5.23510480354001   -2.60220194636766
C         0.87329885514239    1.48806180679083   -2.98280626505179
C         1.76953460509343    0.45756722501269   -2.23796127580193
C         0.88250607342709   -0.74631325152443   -1.79282229236112
N         0.06919333441341   -0.32714772569748   -0.64072654156196
N         2.47671822367776    1.19025867644089   -1.16903120792305
H         4.74787635442888   -1.22680270537529   -2.93096667365761
H         3.27018160023897   -2.23574094372451   -3.27955706438897
H         3.54269518583799   -1.41635906596326   -1.68876457108402
H         2.76910534940876    0.05893474775628   -4.17892607911617
H         5.24566037057316    3.02093785423760   -1.57349465217615
H         3.76209630498786    3.47727153694968   -0.71113921936513
H         5.02424397628507    5.11915548014951   -3.02385140788172
H         2.40630283208238    3.67845441627945   -4.45934813271764
H         1.41076657077168    3.13712813555944   -1.71603943711294
H        -0.93074037565343    3.51031997790827   -2.87651790362652
H         0.13340805211485    3.99494544397039   -4.24169171105631
H         1.12608255705176    5.47632449587105   -2.72863057664640
H         0.97079963501806    1.25468846197593   -4.05149737037691
H        -0.17428109430995    1.36318758492002   -2.67717979083962
H         1.40586516102690   -1.69581497938521   -1.68334591030602
H         0.13356604512419   -0.90411374035098   -2.57886843958218
H         0.77273482852732    0.02644059987887    0.00301346981782
H        -0.27062588232631   -1.18612150249149   -0.20520152916612
H         1.97037495529579    1.89393049486524   -0.63544339921127
