35
 energy: -49.716734401174 gnorm: 0.118410608866 xtb: 6.4.1 (79825abcba525fcdf90b791dcacef51065a7a4e7)
C         3.65383704333070   -1.33237465576746   -2.93596832715464
C         2.94069624370019   -0.05659538978582   -3.35940887304509
N         3.92936103353785    1.05236987019126   -3.22295381362074
C         3.62218989723140    1.63348544845394   -2.09921941876160
C         4.15275829728689    2.92481953240738   -1.56246213238773
C         3.63935558372919    3.93064442049237   -2.59979338378700
N         4.35506647375054    4.87692942541907   -3.12127914650603
N         2.39160054919386    3.70480561986637   -3.15667220860213
C         1.24044258853751    2.94649493650516   -2.62969290129841
C         0.01530685424990    3.79934371874452   -3.04960148181754
O         0.27215375302487    5.14622030979526   -2.65160766403106
C         0.90459898377825    1.50549651146526   -3.07354434436529
C         1.78286630243174    0.41084760687653   -2.40246913790491
C         0.95962951443775   -0.71707714110443   -1.70650687673667
N         0.17524669647418   -0.13920289933718   -0.60409728183309
N         2.65681833080717    0.97778509780367   -1.35635888050970
H         3.74549964414037   -1.29289819850900   -1.84403551851812
H         4.63749816484819   -1.38647081018355   -3.41411734246984
H         3.04394169873205   -2.15689911133447   -3.31084798529182
H         2.65448452909563   -0.08627634984133   -4.41955806151092
H         5.23248863484600    3.08580025494635   -1.50828895620388
H         3.59460868785875    3.18810197934224   -0.66183714331301
H         5.32818178916293    4.92810964450805   -2.79474472522836
H         2.15426675603440    4.49050244523631   -3.76680232284104
H         1.26326231263339    3.09477822103894   -1.54155173447245
H        -0.95846623131105    3.53568166566899   -2.62430642226277
H        -0.02241405833465    3.73813882598365   -4.14447609823658
H        -0.13966465738880    5.72616396823302   -3.32014203939497
H         0.93943683454678    1.53994132821270   -4.17066332702398
H        -0.08324545487296    1.41166917646387   -2.60260414593976
H         1.65194383620149   -1.45449832168343   -1.30110062052893
H         0.32112073825369   -1.36131491705039   -2.32371422904876
H         0.78629085759676   -0.04724513756075    0.20371788226664
H        -0.71548597485278   -0.57489653059827   -0.35963573726900
H         2.00622220406324    1.40899927481041   -0.70288164147400
