35
 energy: -49.725761954647 gnorm: 0.106178740832 xtb: 6.4.1 (79825abcba525fcdf90b791dcacef51065a7a4e7)
C         3.61075480852015   -1.42151321322779   -2.47154836451616
C         2.94148818982891   -0.23970134739977   -3.15776069633276
N         3.96017011694129    0.83835675346400   -3.31888138903777
C         3.75112383429843    1.62162435407025   -2.30024506993584
C         4.30185728107541    2.98021215910984   -2.00345084771213
C         3.64193067370624    3.88250123196178   -3.05306673713651
N         4.14812308399869    4.96999644160370   -3.54374812928277
N         2.39304879684916    3.46953524306693   -3.48638303273572
C         1.26566611606806    2.91221616142116   -2.71417145889351
C        -0.06599188789256    3.69841109331922   -2.82913371683484
O         0.06677369151820    5.04050617770969   -2.36051869100886
C         0.96572257045423    1.42220869264324   -2.99018443857404
C         1.86790593993458    0.41930612873076   -2.21545653187322
C         0.97042481810784   -0.53178433257892   -1.36442706717280
N        -0.15862511974280    0.27809762307119   -0.88085759053457
N         2.84255582999498    1.14158616958127   -1.37407308744652
H         3.81093954702270   -1.12776636794603   -1.43428439296308
H         4.56039640881678   -1.66478142093346   -2.95954784537392
H         2.89277324104414   -2.24118350125778   -2.40090307609116
H         2.59501591974624   -0.44284681911888   -4.18021035611966
H         5.37016657641676    2.87546829343631   -2.20939045588635
H         4.05069486174824    3.22941145865143   -0.97059502330212
H         5.13481071616060    5.06037260648478   -3.27084295617357
H         2.03264905535403    4.21653591361988   -4.08472042468089
H         1.53680233494028    2.98241210900245   -1.65204266590027
H        -0.80471543132763    3.23730961369591   -2.16558225124725
H        -0.41900874772462    3.69100878030285   -3.86800022867415
H         0.73710863146453    5.50064435538160   -2.90069568666085
H         1.01543196141407    1.25333745963560   -4.07419628989268
H        -0.03885338236305    1.26010163294936   -2.57669521451983
H         1.57699546374452   -1.01595291292175   -0.59951125440847
H         0.47016393333400   -1.33388985508751   -1.92124524875192
H        -0.62194586772882   -0.21379958563951   -0.12074736189518
H         0.02100451252045    1.25073306491188   -0.62647878428836
H         2.45292905326373    1.81126029024281   -0.71378448279427
