35
 energy: -49.726170804222 gnorm: 0.114350282374 xtb: 6.4.1 (79825abcba525fcdf90b791dcacef51065a7a4e7)
C         3.65840093535011   -1.38420202720188   -2.79732924205789
C         3.04033484996865   -0.01875234690270   -3.06005706150189
N         4.04731193608616    1.06112990982097   -2.84620325927857
C         3.67726507226358    1.73225572121012   -1.79383265589501
C         4.06336731034024    3.16188856069798   -1.58352347946977
C         3.55559266069872    3.84091366330294   -2.86118227911661
N         4.23309826003830    4.68470707717399   -3.57437485292165
N         2.32272936574761    3.46661397401791   -3.36907762173129
C         1.13044264422235    2.92990114170474   -2.68475410362860
C         0.01299793221982    3.95684789377350   -3.00307704289921
O         0.52556319786175    5.25423106761180   -2.69890652781415
C         0.87216878659300    1.43519345584325   -2.97701262275531
C         1.81057698366538    0.46342105009259   -2.20565013973951
C         1.09563915511424   -0.76582525171426   -1.56368911847372
N        -0.27291629228389   -0.42449652927288   -1.14529617783663
N         2.56228197816223    1.20079348262202   -1.17086590148565
H         4.57792832060604   -1.49878211261345   -3.38351903174624
H         2.87193621835604   -2.11011533792011   -3.02898673430779
H         3.94083562816061   -1.35210281114980   -1.74302949810432
H         2.72389703777848    0.02600753666119   -4.11104615628183
H         5.15332934951382    3.17554148704095   -1.66391935364372
H         3.67551678656351    3.64688976389274   -0.68557036216485
H         5.11810998092212    4.87114648220611   -3.08632549878130
H         2.11186084881143    3.88114520846677   -4.27990357477665
H         1.42269140096675    3.18534802389020   -1.65718540124694
H        -0.91682174784277    3.68000169735996   -2.49571215306167
H        -0.26048859016970    3.85362431785047   -4.06065415139941
H         1.40231631187671    5.40497990325577   -3.10070999300565
H         1.00224421113287    1.34308029307845   -4.06359706176006
H        -0.19066795382944    1.21290454639058   -2.81151170762468
H         1.76241318580896   -1.20209838129969   -0.82037122254772
H         0.90223092496455   -1.54385683854954   -2.31264893690526
H        -0.25547262987929    0.37422479287931   -0.51590241811776
H        -0.69841816664579   -1.26345874368941   -0.74769632658328
H         2.12183545677046    1.83342998264815   -0.50601148352947
