35
 energy: -49.722784739905 gnorm: 0.107332915397 xtb: 6.4.1 (79825abcba525fcdf90b791dcacef51065a7a4e7)
C         3.40271966890475   -1.49849644348258   -2.57981618051588
C         2.88765556657111   -0.13887125163326   -3.02882930026705
N         4.07776895463432    0.76067247836677   -3.04708389276156
C         3.93892303099416    1.64572250872757   -2.10250107736298
C         4.59955801716330    2.98702663972218   -2.14274545060345
C         3.78969119250449    3.77449296747387   -3.17972891616246
N         4.31252463325374    4.34432494874243   -4.21972003397928
N         2.40631162631010    3.83093655017737   -3.14679038901843
C         1.25808701696378    3.07718311555067   -2.60702841034472
C        -0.00070834143237    3.87767097579280   -3.03044934487423
O        -1.22844609834100    3.19814096104872   -2.76711510236719
C         1.16718415705734    1.63413736414128   -3.15074452621299
C         1.90314283620244    0.70776781876655   -2.14071677977386
C         0.98039288088109   -0.10843741272166   -1.18330456180918
N         0.46132727638097    0.83376168636995   -0.17964438373814
N         2.85714798303651    1.42239993504770   -1.26966448338252
H         3.68711912735142   -1.47422029488803   -1.52113525400129
H         4.21105965725070   -1.74082245807149   -3.27767480144523
H         2.60794178015017   -2.23928103716036   -2.68896730263892
H         2.51933086692255   -0.22274493504064   -4.06034108340801
H         5.63346836097080    2.81305521082151   -2.45166370375497
H         4.52909981993640    3.40649164963019   -1.13723127606967
H         5.33038432289834    4.40377992807446   -4.09078466843441
H         2.13506951558653    4.57053087154615   -3.79896641024086
H         1.29767860134113    3.03793519763477   -1.51000880974053
H        -0.00440551634397    3.93879939791632   -4.12355375415516
H        -0.02503803810113    4.87300253823700   -2.56931760580004
H        -1.44883161884068    3.35590140320868   -1.82934693967345
H         1.66461667129475    1.66766821515899   -4.12926729268957
H         0.13848226677612    1.26068907056579   -3.24419868985362
H         1.67032796106583   -0.69668666691956   -0.57882480281466
H         0.25052282449093   -0.74329303219420   -1.70092291505771
H        -0.08976839764108    1.58507384895873   -0.58734541925245
H        -0.27043314460687    0.41082556569883    0.39363287303489
H         2.43243006529064    2.11179058049131   -0.65272953992383
