35
 energy: -49.726071898533 gnorm: 0.109082593050 xtb: 6.4.1 (79825abcba525fcdf90b791dcacef51065a7a4e7)
C         3.55284919064490   -1.34720736619450   -2.99611759075312
C         2.92146235015229    0.01357546115715   -3.25127473459452
N         3.92934407844889    1.09293567091028   -3.03905331061428
C         3.67245854417011    1.68025190218936   -1.90596114633674
C         4.08506766282195    3.05092118844986   -1.47217049441652
C         3.49639144399412    3.91832370682763   -2.59127521838547
N         4.05196358508523    5.01837549673845   -2.99236182995727
N         2.43056601652920    3.43877789641390   -3.33428385874789
C         1.19519213642807    2.95945022905193   -2.68466600287431
C         0.11758124656804    3.89625560000882   -3.28946538546390
O         0.47481494262068    5.26939653332843   -3.44856916981846
C         0.89108223563360    1.47352524811097   -2.97760907137534
C         1.76446373207137    0.40492079107927   -2.25980623143132
C         0.94264657508012   -0.75960438528053   -1.62514556276328
N         0.44230906034979   -0.42114581808823   -0.28365008450666
N         2.57158889243391    1.13984342882540   -1.26582706099605
H         3.85153694787393   -1.44565369556126   -1.94570261707437
H         4.43666249012502   -1.36582845479244   -3.64239104958450
H         2.92308096208215   -2.17335280859040   -3.33260435807206
H         2.53398149546297    0.09421237633145   -4.27600429628706
H         5.15170221742155    3.24425464928488   -1.61209920273700
H         3.75591487724630    3.29277081403151   -0.45967793323699
H         4.96863060551919    5.27795667360903   -2.60695717548768
H         2.33815677158120    4.01256027853825   -4.17579435346535
H         1.33237950878767    3.06710255335320   -1.60016128326788
H        -0.77664634516155    3.90251610049770   -2.65784412964715
H        -0.16003087122755    3.45963204989111   -4.25704521018909
H         0.90232463280055    5.70441220181460   -2.68642476709535
H         0.83170670887747    1.28070078954346   -4.05712908884255
H        -0.14479642928985    1.41020430691792   -2.61792766398982
H         1.70536577406065   -1.53492259043156   -1.55743693928295
H         0.16997596841039   -1.02061126698590   -2.35899584205325
H         0.34665460924130   -1.28402564518141    0.24614720285758
H        -0.52278075675419   -0.10954515319255   -0.40407330866581
H         2.09198948799224    1.45967027935552   -0.42681058216996
