35
 energy: -49.718430537379 gnorm: 0.103907590055 xtb: 6.4.1 (79825abcba525fcdf90b791dcacef51065a7a4e7)
C         3.72043175838082   -1.16150791104021   -2.40834897318478
C         2.89279356707919   -0.04302067128257   -3.02437313284757
N         3.86335505881594    1.04454739888555   -3.34231665662198
C         3.84940083175923    1.76015149952300   -2.25486803809770
C         4.36057062953612    3.15828599720592   -2.10967727499858
C         3.59573176982881    3.60625304007544   -3.36094434024564
N         4.19271195274658    3.81212526210287   -4.49270231237522
N         2.21814152243855    3.72333962340710   -3.28003889933976
C         1.19303430690880    3.14320068419915   -2.39093768376685
C        -0.12059770732223    3.91209830241522   -2.68724699717966
O        -0.11077474332212    5.25609724979265   -2.20556630405472
C         0.94517303666637    1.63175110991009   -2.59182692004552
C         1.90396844904653    0.57666156625305   -1.96937284692196
C         1.08449775983531   -0.28189094780542   -0.95662811127625
N        -0.22932660753799   -0.61833058890970   -1.52687005098557
N         2.96529018716555    1.33602263559103   -1.27906575503837
H         4.20709832081631   -0.81361898563643   -1.48943296235481
H         4.55347086126830   -1.48013866862714   -3.04369326800389
H         2.94955599264695   -1.88668365195584   -2.13961421670457
H         2.32885246516119   -0.35971363427031   -3.91228664836488
H         5.44925816382833    3.10021696738028   -2.18748850945377
H         4.05676652678887    3.68851558238527   -1.20494877260256
H         5.21595935601513    3.78101477225314   -4.40217907458668
H         1.99154124554037    3.74840991203337   -4.27699897881919
H         1.53107683401030    3.37692554148829   -1.37228179668244
H        -0.99503474487136    3.40123602077125   -2.27130567056842
H        -0.26740892367299    3.83867292546049   -3.77213155801333
H         0.77602643948595    5.60927265135222   -2.40981629495191
H         0.82707329951972    1.49094827504385   -3.67455366815378
H        -0.04532163983780    1.50924629617431   -2.13320099492372
H         0.82522399160463    0.37453093340282   -0.12636864377083
H         1.63983051223154   -1.18676624319004   -0.68006540602062
H        -0.05601220667269   -1.14984606497967   -2.37648758609465
H        -0.66249082849022   -1.25950747565703   -0.86034469980667
H         2.84837245031067    1.90552309432199   -0.44345043997561
