35
 energy: -49.718895887250 gnorm: 0.120063531151 xtb: 6.4.1 (79825abcba525fcdf90b791dcacef51065a7a4e7)
C         3.48312920579258   -1.36468177055783   -2.88535058243485
C         2.85201412193175   -0.00336012516273   -3.13829631441154
N         3.88406595429955    1.06998022424819   -3.04506810936025
C         3.72677414961796    1.69197868214176   -1.91228145070806
C         4.33489618550281    3.05669537441457   -1.84234696382431
C         3.85234609037104    3.86969061042859   -3.04961923203210
N         4.46482066355214    4.86630202676620   -3.60754878216225
N         2.66478395122176    3.42772470500803   -3.60852187299633
C         1.52743828957778    3.14166488005908   -2.71268617113877
C         0.43412003378163    4.13718087616552   -3.17984237680359
O        -0.82471826897911    3.96092284073683   -2.52968456195580
C         0.92205120058331    1.72163646742845   -2.65526418610611
C         1.80286352942257    0.56076418648793   -2.11074896045619
C         0.87484019534323   -0.53526465459610   -1.50100312236128
N        -0.19335329614050    0.00638257119185   -0.64655423704923
N         2.76968563070080    1.07971832446564   -1.12307566215581
H         3.82381446285671   -1.47941758358753   -1.84947080042834
H         4.33267546534685   -1.35461144445984   -3.57622815599822
H         2.71875589440901   -2.04538163879126   -3.26578296331940
H         2.47652688537428    0.05768761282497   -4.16882865874332
H         5.42617699414297    3.01075936492797   -1.88312946372087
H         4.15445072294105    3.54141924767451   -0.88086051770958
H         5.34044096176991    5.06951272169189   -3.10935998916093
H         2.34772277401413    3.87991979160397   -4.46927585148604
H         1.89014562986156    3.42645051111052   -1.71574062755345
H         0.46271434431381    4.12514426734546   -4.27422123183049
H         0.63764392113926    5.18659424218980   -2.93239754944675
H        -1.18435355931040    3.09846297417570   -2.81198351099678
H         0.50535459654266    1.39327414213900   -3.61683182166980
H         0.11027432424267    1.77249432237240   -1.91712012771693
H         1.47350458625212   -1.36409160584568   -1.12405461692833
H         0.44855275781287   -1.01458356263014   -2.39106666412854
H         0.10047699180709    0.74584907087904   -0.01311158817952
H        -0.49650828818071   -0.72646104477699   -0.00310076796351
H         2.27331670398889    1.58748163664822   -0.39365960788819
