35
 energy: -49.726789452059 gnorm: 0.117149943031 xtb: 6.4.1 (79825abcba525fcdf90b791dcacef51065a7a4e7)
C         3.70946438236225   -1.32264871434347   -2.81320721722578
C         3.05412149549118    0.01673375071731   -3.11662893399215
N         4.00384551266287    1.13583791925588   -2.84921138881151
C         3.62182923453244    1.73707565947617   -1.75953016778400
C         4.08761979172154    3.13120280858165   -1.48275664746968
C         3.63466499729391    3.84929408483259   -2.75966660028504
N         4.27745876002309    4.69278179247597   -3.50464274071152
N         2.41278536250547    3.52355429793310   -3.32439092642401
C         1.21041582042226    2.93147111503899   -2.70661110524856
C         0.01709734470621    3.77539003802906   -3.22470731100698
O         0.30853676173583    5.13059198331919   -2.88274721190483
C         0.83831358158303    1.44267204390715   -2.88349731381447
C         1.84021425998738    0.45631064248131   -2.21773619263406
C         0.91114625165411   -0.69669902513045   -1.72610840401082
N        -0.12656987572704   -0.16099418918756   -0.83130812575069
N         2.60085873547522    1.06705115810860   -1.10959679287915
H         4.68824743784818   -1.38332798886120   -3.30369619141087
H         3.06414045157419   -2.12457693861798   -3.18685173303138
H         3.76605484249279   -1.41892633087960   -1.72698633521346
H         2.83010664394544    0.11071148035931   -4.18793651740053
H         5.17663285609650    3.07795532164716   -1.55945341376063
H         3.64945829405015    3.44111293433111   -0.53199684748751
H         5.21239619838004    4.98674871595688   -3.19533223228872
H         2.43292922300572    3.97127706062820   -4.24365374469307
H         1.36832299347556    3.24051759313417   -1.66444246604362
H        -0.93276343073053    3.47013460533239   -2.77391776563125
H        -0.13635384374470    3.55985946069783   -4.28956346401191
H         1.03604905441137    5.46611233954849   -3.44043817894291
H         0.81409822901179    1.16815993999853   -3.94657159013599
H        -0.15915805821876    1.34346622928980   -2.43446124200833
H         1.57237198354225   -1.40178515059599   -1.22304037060388
H         0.46485146618113   -1.23826051040225   -2.56944275078825
H         0.35559580187034    0.22245903343326   -0.02206377192971
H        -0.76550867588037   -0.93931711458841   -0.66111494095325
H         1.90553565941799    1.60908589217420   -0.60069831930065
