35
 energy: -49.728132736000 gnorm: 0.113251666918 xtb: 6.4.1 (79825abcba525fcdf90b791dcacef51065a7a4e7)
C         3.69955287852717   -1.39934948782748   -2.24390218008877
C         3.16780173033927   -0.20286002699071   -3.01923317310767
N         4.05212782319300    0.99204182167837   -2.89250926179718
C         3.67234429441342    1.66731938564520   -1.84628122429762
C         4.10083405484397    3.09415862454963   -1.71331041513901
C         3.66629023396527    3.93329633902236   -2.92092863100207
N         4.49030838814490    4.47855536046966   -3.75957724150402
N         2.33234358965703    3.84447302325107   -3.28246234663278
C         1.28635773774586    2.99788963230886   -2.67656041231407
C        -0.07879060667290    3.67097396948283   -2.97313978232463
O        -0.12963976586093    4.96418863359963   -2.37026652893402
C         1.24548707063667    1.54848180752008   -3.20930622452452
C         1.90104101262181    0.43701210878285   -2.34049332639425
C         0.78383754334555   -0.53533115308615   -1.84987986112697
N        -0.26024749836676    0.17850361949282   -1.09832924815440
N         2.58746407225927    1.09191933821722   -1.20935369284413
H         4.77537095293337   -1.43632654196743   -2.45253069090429
H         3.19001331616617   -2.27295586465722   -2.66381100231166
H         3.60349466293439   -1.23982550415699   -1.16795023501663
H         2.96988350280782   -0.41192117767991   -4.07934459929326
H         5.19316735775504    3.05583452244542   -1.71078727193504
H         3.77690670623628    3.57586111243694   -0.78864410883590
H         5.47878828734722    4.39893739421732   -3.48982544075056
H         2.16874713729801    4.27035458134465   -4.19775830790443
H         1.51441922779403    3.11310668413841   -1.60825667008086
H        -0.83783223250714    3.06247923403554   -2.47092711142753
H        -0.30199332612095    3.71722648579495   -4.04643404958113
H         0.69100683596453    5.34319475150939   -2.73872382686198
H         1.61752413210218    1.52192260949376   -4.24224051473848
H         0.17652330602221    1.33845690938396   -3.34941651343636
H         1.30831856537444   -1.34912123669216   -1.34977114990662
H         0.34049131640286   -1.03843355573620   -2.71821897054324
H        -0.05485681759167    0.09061547906086   -0.10611612440701
H        -1.12070092493656   -0.32374279055235   -1.32274745668763
H         1.92765544199389    1.59329278329117   -0.61814245481182
