35
 energy: -49.726671354365 gnorm: 0.109522682071 xtb: 6.4.1 (79825abcba525fcdf90b791dcacef51065a7a4e7)
C         3.44559907206231   -1.46957607341751   -2.93477040239904
C         2.94410188251748   -0.03619098480701   -3.03168363078659
N         4.00451557878740    1.00396483469296   -2.89211051435882
C         3.78087646714346    1.80329413448680   -1.88917151643692
C         4.18990320984860    3.24003881775487   -1.96411656407425
C         3.53594593356142    3.81299245760017   -3.22720253968669
N         4.17715082952055    4.64100621645603   -3.99067767948931
N         2.20308892670037    3.54048673405081   -3.48651440898766
C         1.15901435363863    2.95739845313387   -2.62174664258433
C        -0.10595152155737    3.75497884462275   -3.03206198767766
O         0.02272181982945    5.17646739584725   -3.06755032109085
C         0.89509547898691    1.43964202240569   -2.73591214218807
C         1.91532412428591    0.53473415402256   -1.98742905850785
C         1.23030630922716   -0.60663365239435   -1.17359451013816
N         0.35564984614266   -0.07062602433212   -0.11899796914157
N         2.81060213017158    1.26132573478336   -1.06542098130408
H         4.10243407376634   -1.65902905334711   -2.07747639092761
H         4.10320921891886   -1.71615301576512   -3.77494346753195
H         2.69041022258312   -2.25825210575036   -2.92951919544703
H         2.56999470077818    0.08110332728420   -4.05784164881325
H         5.24827338468327    3.26545124318644   -2.23591415071395
H         3.93520211280883    3.80034642864023   -1.06236453616034
H         5.18060914078243    4.67584738562563   -3.77146300299407
H         1.91664631164117    3.76145368481221   -4.44308631817925
H         1.32036278001908    3.27262487075227   -1.58195874789628
H        -0.96714165061233    3.50985134250275   -2.40206860581786
H        -0.37305027658314    3.29094719222925   -3.98979483781596
H         0.82692995929834    5.45166877309123   -3.54753024730607
H         0.87926649441783    1.22372272498467   -3.81257295412602
H        -0.10377338208785    1.26356994253170   -2.31438576576348
H         2.06080600766908   -1.12693214040905   -0.69714608985109
H         0.78895590937054   -1.32543698750845   -1.87517294012601
H        -0.48455777847711    0.34855608281652   -0.50981000247817
H         0.06929869241287   -0.88010192907091    0.43394584606693
H         2.28770051613282    1.86736674749603   -0.43649994165694
