35
 energy: -49.718120067804 gnorm: 0.126259087459 xtb: 6.4.1 (79825abcba525fcdf90b791dcacef51065a7a4e7)
C         3.47811675341608   -1.44687091184092   -2.99087828856615
C         3.13319125025734    0.03405987292120   -3.04879900908804
N         4.14298939762367    1.07241528447324   -2.69101734966406
C         3.65758631419521    1.72166997243092   -1.67235125772593
C         4.15174435123014    3.12361239758531   -1.50645916965298
C         3.67342617902549    3.82476573154105   -2.78353313748952
N         4.19527038785634    4.75360083240436   -3.52149573121521
N         2.44409147153190    3.44979876575892   -3.29942636138806
C         1.26633963213423    2.95310096002755   -2.56179576744470
C         0.03787730528284    3.78353656941964   -3.01554552902424
O         0.18473674842000    5.20295633686785   -2.96943935627981
C         0.99852339527077    1.49626316971166   -3.00016739018836
C         1.88573630403586    0.49379821622535   -2.20778556909399
C         1.06944572095039   -0.66506972228194   -1.55587197060846
N        -0.30381391181818   -0.26386314140814   -1.21280750042865
N         2.57283798930154    1.11936784827982   -1.06056682492327
H         4.29363695627161   -1.62291428951754   -3.70236490227788
H         2.66542582471512   -2.15382018499231   -3.18810466838133
H         3.85594863877842   -1.82163499020577   -2.03738859100222
H         2.83542122591237    0.30410283602505   -4.07111218469838
H         5.23902453999427    3.23269022571127   -1.48214969286946
H         3.68682033426025    3.69419599282743   -0.70007587754384
H         5.11077669530881    5.10186342488247   -3.21043475478175
H         2.32161113489743    3.99909487633493   -4.15334553476848
H         1.42958485196338    2.99692268665659   -1.47644304039081
H        -0.78664084415346    3.54061400444028   -2.33747027935239
H        -0.26179476277639    3.37758196321861   -3.98987444639331
H         0.85261100721001    5.43578543587338   -3.64219625537326
H         1.26316009613569    1.37278409962928   -4.05884134837756
H        -0.04713608193677    1.24352828632790   -2.77847794997463
H         1.74611066166293   -1.02890464832482   -0.78308994153407
H         0.79531068971607   -1.35207424359474   -2.36615308488609
H        -0.27873144373979    0.39301607072666   -0.43674235606934
H        -0.83654162166611   -1.07367063792458   -0.89123621733609
H         2.08085153147457    1.68301519626060   -0.37027379442090
