35
 energy: -49.724009521447 gnorm: 0.109274999461 xtb: 6.4.1 (79825abcba525fcdf90b791dcacef51065a7a4e7)
C         3.53794665942251   -1.44802989277302   -2.67474601207007
C         3.03521454129132   -0.09565783377173   -3.15831055933130
N         4.14300016443402    0.89494039334805   -3.02637059544443
C         3.81337064293853    1.63524684247142   -2.00748927563360
C         4.31678434776094    3.00092149544123   -1.66301531950756
C         3.49427551126794    3.86855581204661   -2.62322992291881
N         3.81265049176225    5.08313130961689   -2.94430395643879
N         2.37565733577446    3.38797434344231   -3.28333950515240
C         1.08283420352450    2.89514880140175   -2.76988229672036
C         0.01582329064622    3.84194327118766   -3.37791170568783
O         0.35495033413418    5.10526148359618   -2.80566533849496
C         0.96064272252735    1.39162564178783   -3.10268685274881
C         1.85564687786714    0.43552264653694   -2.26317134426956
C         0.93274306484383   -0.64180135584293   -1.61361913748194
N        -0.10374710685414    0.00020584192469   -0.79020135327519
N         2.69458951902072    1.20064982716732   -1.31960759242471
H         4.39893528969515   -1.61806888609768   -3.33206100815888
H         2.83650459498050   -2.27623053272335   -2.82036471492944
H         3.82213463401918   -1.41629161650588   -1.62090658311075
H         2.81942058848278   -0.23892679675025   -4.22584106354428
H         5.39401942952213    3.04204902302748   -1.84340442870899
H         4.08638238644955    3.38843765454409   -0.66867123663934
H         4.73237113677647    5.48896095577982   -2.73073010785657
H         2.20005717322269    3.99190757222935   -4.08977291364228
H         0.95044237951934    2.95614939842914   -1.68116230935596
H        -1.03465569515472    3.60776386314500   -3.17720921278469
H         0.26241194929236    3.90055385832263   -4.44546880596441
H         1.31109346514433    5.29963095195979   -2.77603287299167
H         1.23918772755716    1.16804115268176   -4.14119196227955
H        -0.08578296092804    1.07078970290980   -3.01058665398646
H         1.53310624389751   -1.28362790187664   -0.96936290963671
H         0.41882817792973   -1.29867220686578   -2.32642546944679
H         0.25627932600537    0.51645956179224    0.00871015609044
H        -0.66139008386767   -0.74583655877271   -0.37133367571842
H         2.17871768361620    1.94192545742365   -0.84988408752021
