35
 energy: -49.718284389230 gnorm: 0.114220826959 xtb: 6.4.1 (79825abcba525fcdf90b791dcacef51065a7a4e7)
C         3.67020304231882   -1.43055435642083   -2.93481946107002
C         3.00977507025242   -0.08686549981702   -3.20651700604982
N         3.93766764760624    1.06608271968079   -3.01781683695274
C         3.55888023885787    1.76244859936426   -1.98513921001091
C         4.05979140007432    3.10190268617730   -1.54684055651337
C         3.71725106823391    3.89105061405086   -2.81618442598983
N         4.50005230664325    4.75317869329393   -3.38504485587559
N         2.50186713086359    3.61165248303691   -3.41850359802710
C         1.31861978112977    2.97566127391528   -2.80748166036388
C         0.09561775797499    3.88098439346743   -3.10629243230260
O        -0.26137026582670    4.83283860878348   -2.10380600554744
C         1.04003767936305    1.48725133844893   -3.11293105038844
C         1.82667989691738    0.41852634965494   -2.30115981104252
C         0.84827718653807   -0.64057482178203   -1.70506473575130
N         0.27753028431381   -0.19253341136428   -0.42521754992456
N         2.55898038594073    1.15173756028815   -1.24963984868774
H         4.14817726805429   -1.45253435481736   -1.94824194727524
H         4.37131764497574   -1.56139011879884   -3.76576012958392
H         2.90345439473596   -2.20149753992230   -3.03527233654939
H         2.76138268715845   -0.07378512590548   -4.27649108520198
H         5.14442182904997    3.11317375935671   -1.41224139033466
H         3.36427509597623    3.48370504306658   -0.79686852930576
H         5.42501869598493    4.88874428151243   -2.95812951473880
H         2.44577344839083    3.89395723450107   -4.39986138081541
H         1.44070966928506    3.22339638848748   -1.74433480484519
H        -0.78918351229560    3.27088971622971   -3.31495190299835
H         0.25843246151452    4.40086525351445   -4.05872856035090
H         0.20547950219315    5.65464344797609   -2.34784567202364
H         1.20932390840457    1.45023176331664   -4.19738571107784
H        -0.01712712068028    1.21350801158945   -2.99506662228848
H         1.47088030497151   -1.50904214877309   -1.49158591109674
H         0.08602473924477   -0.94399118826747   -2.43348110209255
H        -0.41123256374513   -0.88793734715244   -0.14878376021237
H        -0.08427795215081    0.76127873512554   -0.47351111611098
H         2.00168902203989    1.66070035426812   -0.56653173896635
