35
 energy: -49.725978262393 gnorm: 0.106205880776 xtb: 6.4.1 (79825abcba525fcdf90b791dcacef51065a7a4e7)
C         3.71339341104745   -1.25717919745101   -2.65548701658453
C         3.01513163942916    0.02431477563756   -3.08640248481909
N         3.97267983017524    1.16426547981948   -2.98895576584791
C         3.62208418928406    1.78228957241235   -1.89810410056329
C         4.16439651778137    3.16667847448207   -1.73525549544301
C         3.62383802167211    3.82783963632193   -3.00882710847842
N         4.33770606616218    4.61355274251763   -3.75225978912332
N         2.38867688643239    3.42607613210074   -3.48942352562343
C         1.20821958677564    2.98266686273671   -2.72273209083967
C        -0.03938101043696    3.81060823294310   -3.12601568712032
O         0.02787236701762    5.16316646786387   -2.67378880080407
C         0.87251339653984    1.48083602099906   -2.85718284490511
C         1.82216931333115    0.46473894893900   -2.16029544377436
C         1.06893031503640   -0.77633351572668   -1.58874780951765
N        -0.06410322820628   -0.25964129497119   -0.80531554480742
N         2.61873095654197    1.19098886568790   -1.15153008360667
H         4.67064929176632   -1.42899689438602   -3.16186389022007
H         3.03167917024227   -2.09977737192225   -2.81180749628278
H         3.91367676827179   -1.23258159318688   -1.58234713710184
H         2.83276433989844   -0.03441372864958   -4.16807135564372
H         5.22506234178500    3.03797920641193   -1.96567178750625
H         3.83252141678472    3.78961439745728   -0.90231866511616
H         5.29481355979237    4.78237017088856   -3.41812884524008
H         2.18688857857851    3.79937193928777   -4.41992732233858
H         1.37939894338367    3.17761968622746   -1.65537511763148
H        -0.92610716120304    3.37584294876645   -2.65344455577261
H        -0.13420045360602    3.76736169726890   -4.21828778524287
H         0.86095460333772    5.33413661467394   -2.19461194853803
H         0.79586658333175    1.32789281214358   -3.94198874721542
H        -0.17774636590370    1.36358577470497   -2.55779734593529
H         1.68973018722058   -1.39175087444425   -0.93812322794739
H         0.79276883055688   -1.46152199631947   -2.39987806126880
H         0.28419229789739   -0.06191542895880    0.12955944575077
H        -0.88766410813755   -0.83886055326229   -0.63429621966674
H         2.06202148636865    1.69835394323257   -0.46676097818615
