35
 energy: -49.722269232603 gnorm: 0.123534084750 xtb: 6.4.1 (79825abcba525fcdf90b791dcacef51065a7a4e7)
C         3.45485080595471   -1.36940309708876   -3.14292382957154
C         2.96156762489771    0.06904393060650   -3.19793546628024
N         3.99543395174586    1.10999604115688   -2.92697215368108
C         3.65287599089665    1.69776249930529   -1.81701131825184
C         4.15896436534052    3.07666391362312   -1.53476960293043
C         3.63772983378600    3.92014469511092   -2.70446055379475
N         4.27262597110263    4.99216326321004   -3.06129088196728
N         2.43394497924191    3.56365853846757   -3.28912240677580
C         1.23527448395453    3.03314828537357   -2.61114386689786
C         0.04795033069322    3.74551050168990   -3.30930809518921
O         0.19280767443231    5.12910848544003   -2.98818671541500
C         0.91973854001530    1.54443311088667   -2.87654119139658
C         1.82374834772346    0.47943337503098   -2.19207533613931
C         1.02757918794206   -0.72622014267954   -1.60316888949445
N        -0.13417371886246   -0.39626443703144   -0.76295381268153
N         2.64353609284799    1.06559102806036   -1.11322215108611
H         3.64773971884969   -1.83037256315390   -2.16692245139658
H         4.40040814035047   -1.23371691542318   -3.67832337414486
H         2.79740725569494   -2.02851159863768   -3.71361781508578
H         2.61618223643464    0.24143859617031   -4.22638256228675
H         5.24299575367480    3.06429973182249   -1.67401838274929
H         3.90079429706706    3.40356914414842   -0.52558420087763
H         5.23872552498284    5.26474531718468   -2.84095426223624
H         2.26124442193768    4.03414010422102   -4.18059714259318
H         1.39105789887604    3.23599399629390   -1.54289996581992
H        -0.86064296007798    3.37397971987583   -2.82448780533532
H        -0.00496436882029    3.53649083022830   -4.38514737099626
H         1.14218750996783    5.33621462186446   -3.08120412716681
H         0.88146363883430    1.24969007323857   -3.93376953832001
H        -0.10548445974198    1.45986018543603   -2.49158652249273
H         1.78564592050757   -1.27214119452943   -1.04214447379587
H         0.66759852661717   -1.36333522132849   -2.42059105749383
H         0.09765610570002    0.21318351547186    0.01757463639929
H        -0.44949438149687   -1.30646771311678   -0.42369290903993
H         2.12004193787556    1.68096330446734   -0.49392874913210
