35
 energy: -49.715168018352 gnorm: 0.111798941036 xtb: 6.4.1 (79825abcba525fcdf90b791dcacef51065a7a4e7)
C         3.39407201302348   -1.46842907499552   -2.44202499164192
C         2.92199541178434   -0.21660882094989   -3.16698995273937
N         3.99396268206881    0.82096965594951   -3.15288013800284
C         3.83512627083254    1.58484665912503   -2.11072308050358
C         4.44235571009867    2.94472673528374   -1.97232688571393
C         3.82869562869440    3.93429292730118   -2.97007547497686
N         4.54740990539074    4.83963563074873   -3.55612086126274
N         2.58726220973669    3.68154514780565   -3.52951401145769
C         1.42808482923234    3.11009764329046   -2.81700960695354
C         0.07339230995541    3.85946521433751   -2.90582533765271
O        -0.63327232244104    3.90330480035931   -1.66600715046801
C         1.17777460071328    1.63270167514415   -3.19239940099198
C         1.84543149995199    0.54203879965437   -2.30660005248610
C         0.66999892487041   -0.30682113027132   -1.73032610168119
N        -0.13826054816137    0.67901418569940   -0.99592338685639
N         2.72225925945242    1.25621703988603   -1.35755870712696
H         3.56546064924156   -1.17074158888144   -1.40073455060516
H         4.31109514594774   -1.83742522204101   -2.91324946213204
H         2.67540189539657   -2.28749386315914   -2.37135815196664
H         2.67418712408029   -0.36298856234038   -4.22712128851854
H         5.49979273238168    2.93436231387346   -2.24870826143953
H         4.35368689639129    3.35833910066574   -0.96582966830085
H         5.49082923604543    4.88673494920181   -3.15122681490288
H         2.50254576791558    4.28857913201745   -4.34819493877847
H         1.77482590809409    3.15568066630425   -1.77573504556576
H        -0.53784579335541    3.28595586843725   -3.61017085282253
H         0.03746672320481    4.88997688227724   -3.28089115841667
H        -0.83825548059508    2.97194142020048   -1.45765307886240
H         1.50325902941128    1.39834263125428   -4.21475254184595
H         0.10590663521285    1.41660890170977   -3.08834237906811
H         1.10221118858576   -1.13208289652809   -1.16501296417872
H        -0.01887112048939   -0.52845418429900   -2.55495787888761
H         0.45873203775006    1.09884519499673   -0.28758849572538
H        -0.75420225898366    0.13185811218424   -0.39240774516856
H         2.32144880708833    1.72783618613664   -0.54936328702724
