35
 energy: -49.732156497665 gnorm: 0.111700070316 xtb: 6.4.1 (79825abcba525fcdf90b791dcacef51065a7a4e7)
C         3.60361288847363   -1.46014957449037   -2.76817039090776
C         3.01991478454368   -0.10057284898295   -3.12360265584941
N         4.02233173019434    1.00422107156599   -3.10186179372519
C         3.81651502260823    1.64378973849317   -1.98677443074975
C         4.27462155229339    3.03839353011275   -1.69976638863440
C         3.58807964430100    3.90167980701616   -2.76499838222306
N         4.09018158316111    4.90918347053642   -3.40724040343216
N         2.35835582546176    3.45742404031831   -3.22153533496118
C         1.13758124971491    2.94682534657623   -2.56815535028595
C        -0.02021754333803    3.71502229043522   -3.25663719981209
O        -0.14056518024769    5.11604341022031   -3.00944855962327
C         0.94082984442398    1.45470353789224   -2.91619694982000
C         1.90681105700962    0.48410630395983   -2.17810955269442
C         1.05976690318442   -0.64325628849161   -1.51037730353586
N        -0.00924839171568    0.02515516972311   -0.75213301485540
N         2.82931771093916    1.08536351318466   -1.19473363809758
H         4.35351284237465   -1.69113613229311   -3.53405089929936
H         2.77106308229360   -2.16718138147192   -2.69001077724111
H         4.09921153823268   -1.29439051078560   -1.80939326297729
H         2.66772910657919   -0.08796232548594   -4.16404518064303
H         5.35986794232228    3.00843409746935   -1.82629640159035
H         3.94807124098457    3.32870133300908   -0.69923639044808
H         5.00223657115331    5.25345363630053   -3.08192315560011
H         2.04696313093613    3.92710986842228   -4.07496103116976
H         1.25495107416395    3.19619329880910   -1.50485866770664
H        -1.00579016110583    3.35197518319928   -2.94765336728282
H         0.11923044959782    3.48269181894851   -4.31988512199095
H         0.66652069238628    5.55314093122807   -3.34175175138982
H         1.09667843283166    1.41242857769736   -4.00247235715442
H        -0.09748539849417    1.20669406456998   -2.65770587448085
H         1.61071802735696   -1.31504941694106   -0.85266140155829
H         0.54269919553620   -1.26215559798800   -2.25420882975119
H         0.33406540890622    0.45379713192975    0.10390334011412
H        -0.72369258479837   -0.63355015272631   -0.43801221168638
H         2.45466685884037    1.73681830831703   -0.50807733723727
