35
 energy: -49.730427848180 gnorm: 0.105701604821 xtb: 6.4.1 (79825abcba525fcdf90b791dcacef51065a7a4e7)
C         3.66534103339562   -1.44111626514825   -2.81623584326942
C         3.01369838426370   -0.10414714238412   -3.13773208078682
N         4.03184084561355    0.98013067454643   -3.02107218110126
C         3.72970986345786    1.65192241697872   -1.94764722662089
C         4.21742644208885    3.03074616549203   -1.63438609515172
C         3.64769519346936    3.84439672738583   -2.80259037078297
N         4.26735564120269    4.82659613791726   -3.37787294517157
N         2.37726036050490    3.60993718087155   -3.30162330060786
C         1.18826663499244    3.03822016215909   -2.64030605143036
C        -0.03239799105720    3.82067307118744   -3.19019434511857
O        -0.01735464797335    5.18320798273278   -2.76391009042207
C         0.94838155252117    1.53418236321804   -2.89836986756703
C         1.87509141725279    0.48221307547117   -2.22418808693239
C         1.00504550161103   -0.67357785121829   -1.63983891613495
N        -0.13241028311370   -0.22096834937881   -0.82384815220103
N         2.67714655502343    1.16787208599164   -1.19164937826246
H         4.14139733661410   -1.40588669171912   -1.82911531063483
H         4.41261587042327   -1.51624221764236   -3.61315396298784
H         2.97316999569224   -2.27213461802387   -2.96675298433312
H         2.65195807242734   -0.13246620685229   -4.17458133680874
H         5.25145920316817    3.38470438257693   -1.64691440866678
H         3.73969820831671    3.22076978594472   -0.67124500772044
H         5.23370502507068    5.07325400216901   -3.12982794826263
H         2.11605012454974    4.26084365587571   -4.04593207751733
H         1.10521073031034    3.21076324534063   -1.55869130236646
H        -0.90449291267805    3.29565621220852   -2.78716166794852
H        -0.01903205566159    3.74097355145479   -4.28444690608614
H         0.88990780904689    5.53277255976886   -2.85078183840759
H         0.98263354958460    1.33583292960694   -3.97797835955987
H        -0.07904541072739    1.31400710678296   -2.57846121790384
H         1.71402812436776   -1.26158379122512   -1.05757092578691
H         0.67361168222341   -1.34361876505292   -2.44288156133644
H         0.26496316752721    0.25241773073510   -0.01613750176565
H        -0.78743225902208   -0.93232556571764   -0.49534823024502
H         2.20152487428476    1.84815087773475   -0.60236314943531
