35
 energy: -49.723388946335 gnorm: 0.106682945691 xtb: 6.4.1 (79825abcba525fcdf90b791dcacef51065a7a4e7)
C         3.45722526126968   -1.39073613445478   -2.49101102012335
C         2.74162260937970   -0.16619373564095   -3.04227612414268
N         3.82363212207527    0.82154715318308   -3.32424308540067
C         3.87815832243192    1.60189188616178   -2.28360990594265
C         4.63672857288405    2.88436470565114   -2.15326579068658
C         3.84435115474788    3.85027616154424   -3.04235255578635
N         4.35985554260259    4.82309148635112   -3.72611448208656
N         2.51668411293905    3.57029548245397   -3.31969866889728
C         1.26160560840959    3.12161130306396   -2.68616302529803
C         0.14118074082379    3.85275063676667   -3.47020080014984
O        -1.07123366576278    3.74481674898653   -2.72397861790519
C         1.00136871922796    1.61947863725845   -2.93545353514193
C         1.84702300282976    0.66186037575455   -2.04787943590102
C         1.06142087291994   -0.27021004802908   -1.07403623721105
N         0.16580224398391    0.44817916082374   -0.15409809510219
N         2.93349025608941    1.33494805716761   -1.30889444206068
H         3.77426059107172   -1.08303143112508   -1.48747521999226
H         4.32212395548254   -1.58236583596753   -3.13472709962045
H         2.74474882991052   -2.21770567165687   -2.52010381236409
H         2.16434261521039   -0.30018026836578   -3.96721387548430
H         5.62399512315936    2.89215887276836   -2.62221264459362
H         4.51334866589968    3.23508320005840   -1.12674353397279
H         5.35220234013017    5.02685684768081   -3.55312584041383
H         2.34461419510069    4.11994636535315   -4.16479123995577
H         1.23999185557519    3.42523312820703   -1.63074533246738
H         0.04663954295648    3.46428754461029   -4.48940930821320
H         0.34059425804263    4.93127587174385   -3.50080959552607
H        -0.89558880156926    3.88906520206918   -1.77465858396478
H         1.19623816215213    1.52993495073182   -4.01252272473787
H        -0.07458799382667    1.47009484630222   -2.77289122146497
H         1.78240264559394   -0.81423839599056   -0.46439552342784
H         0.53070402492757   -0.95453278135995   -1.74762567793934
H        -0.11887456751400   -0.18910788759605    0.58564569078536
H        -0.71587259465130    0.55890131762693   -0.65747188158231
H         2.74216521348491    1.98946818946812   -0.55308255847353
