35
 energy: -49.722609019874 gnorm: 0.110304059456 xtb: 6.4.1 (79825abcba525fcdf90b791dcacef51065a7a4e7)
C         3.62595906842776   -1.43305346565352   -2.96101389020267
C         3.03995900692891   -0.03488522357224   -3.09221560160687
N         4.07791681290938    0.98666960896899   -2.76825374014326
C         3.65784991436879    1.63692591414975   -1.72157378066484
C         4.00006215296097    3.07926725207888   -1.52233235015454
C         3.63335488751343    3.83814148084190   -2.80333112380311
N         4.41973867020369    4.70795397880356   -3.35530173461243
N         2.43600550300792    3.51530104436732   -3.41988471953731
C         1.21636634754485    3.05606121873800   -2.72743538297394
C         0.03017298665080    3.85948232917513   -3.32080850444197
O         0.08537604273670    5.15255381448101   -2.71801109293055
C         0.91969592140632    1.55469036504943   -2.93753944338069
C         1.79691931690732    0.46020080262945   -2.26484089936198
C         0.88324849679669   -0.67518591524743   -1.70770613828223
N        -0.05349575729629   -0.19599460504027   -0.67941248042871
N         2.55253810399320    1.04348283117581   -1.13861745776179
H         4.68796043188330   -1.28897452038518   -3.19268615719194
H         3.15546733310069   -2.14677090697840   -3.64540194494929
H         3.49608080596686   -1.74812367556567   -1.92360844525469
H         2.81312297308236    0.07869581060827   -4.16102763582181
H         5.06494109332295    3.32138688930185   -1.47674657628721
H         3.56520241608874    3.57761707796708   -0.65370213903099
H         5.38819241046531    4.79622257111761   -3.02288097092247
H         2.24901894186294    3.89488836234052   -4.35093524473390
H         1.35856081949014    3.39520837153041   -1.69238958122176
H        -0.93344752817405    3.43909083345813   -3.01530222132981
H         0.17867152173063    3.94749384558598   -4.40437737041116
H         0.86613653140199    5.65464404433642   -3.01998082905695
H         1.14573969261003    1.38419805904918   -3.99862699711123
H        -0.15737568009219    1.35473672722352   -2.85778887497431
H         1.49132404377185   -1.47886142154656   -1.29322675890209
H         0.28198822838815   -0.99222229110339   -2.56889992114463
H         0.56102053674415    0.01637181495259    0.10267879849080
H        -0.48945258685433   -1.05462743380402   -0.33928545502781
H         1.95110767390664    1.56320530555049   -0.50267448777260
