35
 energy: -49.726133885825 gnorm: 0.108600066236 xtb: 6.4.1 (79825abcba525fcdf90b791dcacef51065a7a4e7)
C         3.56553618526478   -1.50569768628134   -2.74898507833027
C         3.05486564300393   -0.12266754972311   -3.12571800185456
N         4.06233270166670    0.95814058634160   -2.91896715921436
C         3.69894948266968    1.63038132816067   -1.86498734215915
C         4.27174376481366    2.98795604495984   -1.60798043294153
C         3.65093606477956    3.90038993826876   -2.67258570518555
N         4.28398385714647    4.90570260314793   -3.19050630730394
N         2.41484234622517    3.62353137123552   -3.23243522927607
C         1.16652477973332    2.98184775941763   -2.77652694700501
C        -0.07340833510581    3.78809922587457   -3.24252723149434
O        -0.06001006109503    5.19186818677659   -2.98233664881862
C         1.04578179217064    1.48795473508103   -3.15066102330087
C         1.82679816690889    0.43359592749238   -2.31502196590800
C         0.90923939305536   -0.65710380914571   -1.68039092577587
N         0.09837671669853   -0.04058767190066   -0.61883002043676
N         2.51839037321095    1.21834371017095   -1.27318316089402
H         4.58070510899519   -1.53093140270752   -3.16259480152870
H         2.87965683767369   -2.31463729511301   -3.02161727130514
H         3.62347875856924   -1.46950084027669   -1.65917770103052
H         2.69132587578143   -0.16897721990407   -4.16128967197031
H         5.35007941145017    2.89675412353527   -1.76141311339115
H         3.96073112534499    3.36787400382893   -0.63283557766028
H         5.21062830895092    5.13577103651245   -2.81024831695287
H         2.21446518433874    4.25828660926744   -4.00886319337644
H         1.15351280263092    2.99982239291018   -1.67831590464743
H        -0.92335299671322    3.32496905096559   -2.73092962993515
H        -0.09571748187221    3.61103187483392   -4.32514848934978
H         0.80607037094060    5.55279247599642   -3.25160529099525
H         1.47764071574717    1.46687624006769   -4.16017763465021
H        -0.04301227339852    1.34480353420655   -3.12921119833753
H         1.53830909527899   -1.47397287988936   -1.32763095710718
H         0.25610745041326   -1.13586062547231   -2.42058771461623
H         0.53649049963564   -0.25248551012690    0.27422773786279
H        -0.83806097986343   -0.44372461309212   -0.67849688440808
H         2.12755949524469    1.51179181177430   -0.38021456381713
