35
 energy: -49.716233129887 gnorm: 0.117105440434 xtb: 6.4.1 (79825abcba525fcdf90b791dcacef51065a7a4e7)
C         3.55011489106665   -1.56909853116242   -2.34469360634614
C         3.01541359892494   -0.35152576061029   -3.08435266797475
N         4.05883783395013    0.71193085223894   -3.16314297186173
C         3.76703781079036    1.54078063560351   -2.20257584846368
C         4.51099846341136    2.83119783439158   -2.06655778870863
C         3.65757655177025    3.98444234493434   -2.60787128101964
N         3.95831431323136    5.24159551693366   -2.70150619769667
N         2.45843352074975    3.70438476333248   -3.24161694454116
C         1.23174396909827    2.99785803803756   -2.82453220536214
C        -0.05531727637832    3.68261054143028   -3.35294412725456
O        -0.34465769213236    4.93153043488654   -2.72451181451402
C         1.29401722537868    1.50123658374638   -3.20204747460972
C         1.95092699433246    0.45676169364716   -2.25468617658156
C         0.87134757399262   -0.45067397196739   -1.58732920878043
N        -0.21209687583886    0.12470772212941   -0.77518021929212
N         2.82262435649962    1.13650683842639   -1.27609168302862
H         4.36128630102387   -2.02123372264034   -2.92766221265050
H         2.78955168180568   -2.24707893983576   -1.94341035246628
H         4.01365365672678   -1.11758210902721   -1.46514121708041
H         2.67898486939212   -0.50386782176134   -4.11891635656574
H         5.38117820826168    2.81384651223033   -2.72773346700283
H         4.89320800698472    3.04307425359878   -1.06605879769312
H         4.87288102377647    5.44177360571397   -2.27760287288749
H         2.24607971041193    4.54895694628074   -3.77781586904954
H         1.06486323297809    3.02900477536961   -1.73929464092183
H        -0.94317691481410    3.13644512997045   -3.01822604559100
H         0.07352806753942    3.87120327233740   -4.42614074455533
H         0.34672085288763    5.61761564050516   -2.78893274011968
H         1.85116319696909    1.45350497690793   -4.14723542751466
H         0.24694515561579    1.27285021194671   -3.44268125309602
H         1.47865212760032   -1.08697661493209   -0.94410025512428
H         0.46380035416190   -1.13477400085171   -2.34204313637590
H        -0.56643960116335   -0.66635224556325   -0.24314460209397
H        -0.99306321084702    0.52813934709123   -1.29511250895061
H         2.37468739109294    1.75834519378071   -0.60607450976164
