35
 energy: -49.719481709691 gnorm: 0.105469278659 xtb: 6.4.1 (79825abcba525fcdf90b791dcacef51065a7a4e7)
C         3.35802688360470   -1.51015576871005   -2.46766790625975
C         2.83362247594453   -0.21957161180228   -3.07993991851161
N         3.96118173826209    0.72956406326375   -3.31152919952820
C         3.88724038543183    1.60165002258449   -2.34777239692829
C         4.63758663822424    2.89070757365580   -2.23612088783580
C         3.80331415091796    3.96595201147920   -2.94263415672609
N         4.28561147986764    5.08603689937102   -3.38131847506886
N         2.55287205680304    3.58775661754912   -3.40238696115057
C         1.33474521512436    3.03484435747229   -2.77920000208828
C         0.16293667169003    3.89288351421423   -3.32258325611432
O        -1.02744006241517    3.91396520966109   -2.53454471351062
C         0.99962887543857    1.53177496834567   -2.90065362028300
C         1.90893951636693    0.57076954902468   -2.08237832782891
C         1.01681704143704   -0.32153102886155   -1.16465628215011
N        -0.02441815956038    0.54201542013026   -0.58619386300899
N         2.95546813414157    1.32423605334450   -1.36361338547270
H         3.90550089938490   -1.30576259826581   -1.53988920391202
H         4.10162588510145   -1.92492969110639   -3.15626445341550
H         2.50286310557190   -2.13570470156681   -2.20360140480202
H         2.39593854348482   -0.43779389901032   -4.06356903395324
H         5.57200474468424    2.76758417120113   -2.78962840470926
H         4.96005820022307    3.25615981562116   -1.25917117345508
H         5.25741748295249    5.23524750673827   -3.08210809517507
H         2.30348259590516    4.09762721434583   -4.25311751093674
H         1.37438298596363    3.13650930360533   -1.68619818566819
H        -0.19304191142054    3.62378614194343   -4.32232994300870
H         0.44236668451290    4.95276849660466   -3.27276338674343
H        -0.89554252674066    3.25641754186988   -1.82524832633902
H         1.10864159266931    1.31585454961773   -3.97189813710804
H        -0.04023554795949    1.38220335167789   -2.58013031303492
H         1.63787781948039   -0.84544192670362   -0.43854042109112
H         0.57470708668490   -1.09214084361617   -1.80837983934471
H         0.21049441203384    1.19499117177406    0.15733508001471
H        -0.93880568118240    0.17256667097783   -0.32086733600584
H         2.48256792171498    2.09795138119867   -0.90102990390863
