35
 energy: -49.720928971122 gnorm: 0.117331151533 xtb: 6.4.1 (79825abcba525fcdf90b791dcacef51065a7a4e7)
C         3.67293114342974   -1.50655332681140   -2.75412352864386
C         3.02803742993062   -0.17786015397683   -3.12041705328972
N         4.07198289144610    0.88738431949352   -3.08416715000050
C         3.79462396474849    1.58389502285077   -2.01984894348323
C         4.26285678937798    2.97310470020519   -1.72318520799419
C         3.50366847184419    3.88827975235101   -2.69138449660871
N         3.82520420793545    5.10727873074809   -2.99188582073679
N         2.42336156754808    3.41147143353719   -3.41498704745841
C         1.21504307537864    2.90297265285996   -2.73726852220640
C        -0.00200338203227    3.76147343793667   -3.16901630342169
O         0.27888305094041    5.07633065560715   -2.68870466746465
C         0.99005936818535    1.40858208759513   -3.05734773258579
C         1.87686847964983    0.42896015034183   -2.23645668943695
C         0.89644142715861   -0.56035708598854   -1.53338434703903
N        -0.28763933661473    0.19586371172208   -1.09682414208468
N         2.75753394239102    1.08687149818077   -1.25099339628228
H         4.71321159368214   -1.45552857381905   -3.09689273999924
H         3.14957068890809   -2.42728602404879   -3.03248875104147
H         3.72168652751820   -1.58283283578899   -1.66593604183168
H         2.63094759555676   -0.30212779068906   -4.13707413406524
H         5.32229714577253    3.13235870822341   -1.93972945157118
H         4.17815780006468    3.16545397113852   -0.65183008221270
H         4.74910272320843    5.48075575991250   -2.74064093367128
H         2.14852619284918    4.01576931163917   -4.19292996908055
H         1.42048765614433    2.92021133876924   -1.65835460513865
H        -0.91939257900378    3.45059363876396   -2.65874343265008
H        -0.16088402611768    3.76786602148231   -4.25466606265236
H         1.06755506824605    5.48039712006046   -3.09808713100307
H         1.14984606917478    1.36378039584120   -4.14294950715420
H         0.01433033819807    1.04131835802705   -2.71166712601532
H         1.56136642970180   -1.05474530416316   -0.82564259719095
H         0.61916536966535   -1.31111175613873   -2.28382829202224
H        -0.01540896849848    0.81157710220151   -0.33446977274443
H        -0.91869142379570   -0.43358918394412   -0.59826882955090
H         2.41138935504245    1.66420139952612   -0.48736549552442
