35
 energy: -49.720020316102 gnorm: 0.109008049059 xtb: 6.4.1 (79825abcba525fcdf90b791dcacef51065a7a4e7)
C         3.25352768817037   -1.47074306530430   -2.95441788956066
C         2.82501200093787   -0.02393069630227   -3.15086820081655
N         3.99640725055976    0.89786352470793   -3.08753893166995
C         3.83806778912098    1.62600825304148   -2.02003609560072
C         4.59706511801328    2.90566827258716   -1.86658172119384
C         3.91472553007452    3.80727880972210   -2.90235839857492
N         4.62545878436006    4.72034294747250   -3.48615369012038
N         2.59237144539184    3.71244957384967   -3.30285424256494
C         1.35222097547880    3.20969027525199   -2.68062690998994
C         0.19363022017840    4.14486470740346   -3.11392596496517
O        -1.06663254313071    3.74067209289869   -2.57837759866229
C         0.97166670080689    1.72824101693597   -2.89686303855037
C         1.80787906362891    0.64621265397277   -2.15530036675297
C         0.94666130335439   -0.45674270626032   -1.46530760294784
N         0.08063798419290    0.15116401117237   -0.44307719123901
N         2.76006906693238    1.28285601023152   -1.22386256263669
H         3.90921778858133   -1.45616120091910   -2.07570545263296
H         3.70909355202477   -1.78845595676749   -3.89816592114566
H         2.46690871728625   -2.19294545495047   -2.72637848835724
H         2.59303895245144    0.03104959914127   -4.22319282443820
H         5.57965449177269    2.78586744707948   -2.33008257349024
H         4.65823146242024    3.31637987529069   -0.85685470064957
H         5.61244815658843    4.69673780208032   -3.20068504744300
H         2.36820228392447    4.17606831026516   -4.18643301413257
H         1.36658484477544    3.35747898714454   -1.59227399669437
H         0.26839974837086    4.29983715549610   -4.19513854859388
H         0.45679285942035    5.13898914949556   -2.73132780598788
H        -1.65378310282684    4.11395006288170   -3.26305638465975
H         0.84000714091695    1.46442213403656   -3.95475507465681
H        -0.05272068341785    1.66060956073362   -2.50637443301193
H         1.52089406708646   -1.25871377988855   -1.00212028663340
H         0.33969673370625   -0.89768460734330   -2.26583553284858
H         0.69750821644456    0.45644868694466    0.30570109648043
H        -0.56888967129097   -0.56106914731264   -0.10568596432738
H         2.40029198877410    1.82684851848412   -0.44227054113270
