35
 energy: -49.724253080079 gnorm: 0.109660134537 xtb: 6.4.1 (79825abcba525fcdf90b791dcacef51065a7a4e7)
C         3.55654657470559   -1.41719036230689   -2.38425056036847
C         2.94523549266113   -0.14286144506357   -2.94804930408176
N         4.04008848838596    0.86138759242109   -3.08466117821349
C         3.93801092417804    1.68744340847990   -2.08364149774878
C         4.48893016893772    3.07626483114058   -2.15305335665421
C         3.79197580945865    3.67045387192461   -3.38289733835058
N         4.49590208179007    4.27482184022289   -4.28781279534131
N         2.41713573058545    3.83624766657332   -3.40125563164965
C         1.34874744619935    3.22192251247594   -2.58943171791653
C         0.08895490485418    4.04171021023284   -2.97087990584379
O        -1.15545490035815    3.52698003922142   -2.49659829771973
C         1.15468237864696    1.72149988623095   -2.90142889170392
C         1.91204029167544    0.65009091773438   -2.06569956507915
C         1.02386041728250   -0.31701845401785   -1.22300594285226
N        -0.05243325288491    0.43304215741734   -0.55704573959303
N         2.89506229148841    1.36998903864065   -1.23205011405901
H         3.90865979047270   -1.30140991685683   -1.35231604020323
H         4.38046320933643   -1.77482480025355   -3.01066980480482
H         2.78473946956712   -2.17365492206894   -2.54052862689877
H         2.53736682468215   -0.33205610497606   -3.95032818562339
H         5.55342680179198    2.90977716725674   -2.33689004117138
H         4.29971656940376    3.68262814013670   -1.26508052006521
H         5.50749520735672    4.29849677463581   -4.10804513573299
H         2.00680609290238    4.22010938354623   -4.25576447854543
H         1.52355908600347    3.35436811702125   -1.51311441384613
H        -0.07526895285342    4.07219349169669   -4.05288216520251
H         0.16198972394134    5.02997803855661   -2.49980459725395
H        -1.24280730447994    3.63197763006251   -1.53005170117477
H         1.34370385402753    1.67115827023012   -3.98207999945824
H         0.08861691929173    1.52136332656257   -2.72858596386319
H         1.57932885627619   -0.80884358197601   -0.42487925034239
H         0.60384662037746   -0.98691617729749   -1.98360187173355
H        -0.72529276013516   -0.14295093065683   -0.05715716831602
H        -0.62354363639037    0.80532163375169   -1.31746405133927
H         2.51458762039578    2.08231018328139   -0.61229927266296
