35
 energy: -49.716780648653 gnorm: 0.111934768211 xtb: 6.4.1 (79825abcba525fcdf90b791dcacef51065a7a4e7)
C         3.64479039314205   -1.35810779456365   -2.69875228867460
C         2.99771083028084   -0.08639747366060   -3.22745385999573
N         4.00523902960161    1.00329188382822   -3.07465976743468
C         3.75064199782979    1.64626406111248   -1.97166586980935
C         4.19321860571949    3.04842165984880   -1.69737602037828
C         3.69158805378926    3.85056276081095   -2.90413142560001
N         4.32670437814056    4.78584734535851   -3.53778337220135
N         2.40386341304739    3.58392921400417   -3.33850640131721
C         1.23164300706735    2.95213388156469   -2.70239247288210
C        -0.00927063816500    3.78715365818030   -3.11166880952322
O        -0.07679455068486    4.95138337098191   -2.28798461434885
C         1.07974125850532    1.46039202388938   -3.07374621163766
C         1.86952596571793    0.40518125666591   -2.24747626610397
C         0.96286183194683   -0.63773058010668   -1.52318931823961
N        -0.15102339513093   -0.03420497739137   -0.77517961974026
N         2.70469893278476    1.10123736066946   -1.24870254496296
H         4.65365272563298   -1.07617960249287   -3.02277540367179
H         3.32580587476174   -2.31445701336525   -3.12628840081600
H         3.71643593749224   -1.44162902380797   -1.61236433432165
H         2.57882538214686   -0.14800690236972   -4.24108775806414
H         5.27557029444138    3.16466156808107   -1.59903871557633
H         3.87786579188079    3.50406533093529   -0.75667658091407
H         5.32983555546504    4.80873328139658   -3.31551858306451
H         2.19693879248672    4.22162913098652   -4.11079301266828
H         1.25520032927390    3.25257336521588   -1.64610603321306
H        -0.93335436456350    3.22227016969797   -2.95165786263465
H        -0.01274304542978    3.97308508446673   -4.19302757101297
H         0.35790633268459    5.64291794463864   -2.82247721222450
H         1.25841110663806    1.38866494035964   -4.15495040458458
H         0.02647983723884    1.24317834904769   -2.85040012323011
H         1.62871401922833   -1.15533360397106   -0.83313762921271
H         0.61698611630581   -1.37304054036801   -2.26032563575589
H        -0.40451181566074   -0.63448487806826    0.00571998769320
H        -0.95087565569782    0.23863691204053   -1.34858065376881
H         2.19906431970774    1.48354630763439   -0.45219329972914
