35
 energy: -49.719491318290 gnorm: 0.108643975439 xtb: 6.4.1 (79825abcba525fcdf90b791dcacef51065a7a4e7)
C         3.46947687389008   -1.43552997202000   -3.10190871172077
C         2.93762883141123   -0.01288630716444   -3.19522038959203
N         3.98471264080889    1.01982915846215   -2.94422985672703
C         3.71924616006023    1.63291284700305   -1.82687389229476
C         4.19495223159869    3.02858590107415   -1.57596475593598
C         3.66275869171678    3.89106828009615   -2.72671076474549
N         4.11028082980447    5.06521982855366   -3.04410150515723
N         2.50555950286132    3.44329044708139   -3.34184887601606
C         1.26659525288078    2.96602939130785   -2.69756908976396
C         0.05566582427907    3.75532713906259   -3.25907672091281
O         0.19317431698323    5.17004078907126   -3.12445629671261
C         0.88665007873991    1.48616093541421   -2.92539040921153
C         1.82372098435646    0.47895652034512   -2.19917484918188
C         1.03934676655768   -0.69593864828088   -1.53684942893332
N         0.11090487343381   -0.16790602898780   -0.52507911537434
N         2.62010646921617    1.14021612816004   -1.14652922711769
H         4.21528858896694   -1.52550594144355   -3.90062448598394
H         2.73488144469054   -2.24382360965275   -3.18047726314111
H         4.01208852243252   -1.52309931147938   -2.15837711786565
H         2.71124362843649    0.07322384219983   -4.26669096202787
H         5.28791629184455    3.01943618829711   -1.57956818808768
H         3.59223353054757    3.36276268241851   -0.72918848076750
H         5.03716920929832    5.22059188680139   -2.62824693727348
H         2.30740830297745    3.97471672021099   -4.19286463224716
H         1.25533896765201    3.13174329458175   -1.61176428213127
H        -0.83026970248208    3.34436769256868   -2.76424526349480
H        -0.06751965289917    3.44242309644411   -4.30350753673596
H         1.08578541724121    5.47168044345581   -3.37965465556739
H         0.99441899130736    1.36556861795886   -4.01162867131833
H        -0.15093160908377    1.28157830146119   -2.62875082055513
H         1.68892839146312   -1.27165569006604   -0.87803461549761
H         0.77232285669230   -1.39381427071994   -2.34018531351151
H        -0.30463091596863   -0.85961405388220    0.09400613663144
H        -0.69459961790460    0.35002864306739   -0.87990480679381
H         2.19212763399624    1.61309333994138   -0.35313479490914
