35
 energy: -49.721936796698 gnorm: 0.124725686976 xtb: 6.4.1 (79825abcba525fcdf90b791dcacef51065a7a4e7)
C         3.32101606637729   -1.52663554292942   -2.72555612909989
C         2.77510257826578   -0.12809892658816   -2.97366538345228
N         3.89623780997170    0.82718036747138   -3.21110850873013
C         3.79879858515129    1.66447505261508   -2.21900387272674
C         4.40298714782916    3.03021072380177   -2.30193258985774
C         3.54475439899113    3.88199815350793   -3.24491557692228
N         3.83617631994741    5.02410594991280   -3.78371782536772
N         2.31196113352911    3.39013837233321   -3.64026933716028
C         1.34834930815313    3.02269917293385   -2.58464265406536
C         0.06776574961937    3.80788844890574   -2.96963019324860
O         0.19525644800376    5.18436508808721   -2.61255296451114
C         0.97780204722898    1.52487034253367   -2.51064900703530
C         1.96075684061144    0.54499831584936   -1.80808060398254
C         1.22012820971269   -0.22566505947317   -0.67148758265805
N        -0.11055086915867   -0.64969647947643   -1.13408082514730
N         2.94728837732451    1.42786279058686   -1.15473324151981
H         3.72189792875149   -1.72409393536708   -1.72426616907656
H         4.14574600509945   -1.67684571759817   -3.43011237605774
H         2.60639542804479   -2.30827016897682   -2.99147399285361
H         2.15434146207945   -0.16397074141649   -3.87924986522100
H         5.39412655742876    2.91354380632754   -2.74768884629435
H         4.56714210000519    3.50312852429134   -1.33168731426597
H         4.78321030916633    5.33744843330878   -3.53645141123820
H         1.87889978839762    3.91654492667078   -4.40267317914699
H         1.70427445700033    3.44918950461762   -1.63702290933230
H        -0.79431408705067    3.43544575567207   -2.40684036248153
H        -0.16600473740740    3.74754027974095   -4.03997069625720
H         0.74293130194022    5.63688433994060   -3.28198992354751
H         0.76950283366415    1.13199878337090   -3.51480715445972
H         0.04863547402452    1.37970229268085   -1.94319804941117
H         0.86102417029591    0.42402295862148    0.12625492763936
H         1.77880060758309   -1.09538134246431   -0.30384723540709
H        -0.01794543615201   -1.25575238505305   -1.94557143498784
H        -0.50074487445709   -1.24810276363992   -0.40424958239052
H         2.74641422106523    2.16192940539410   -0.47867906623846
