35
 energy: -49.704057799525 gnorm: 0.133159651496 xtb: 6.4.1 (79825abcba525fcdf90b791dcacef51065a7a4e7)
C         3.59217245848040   -1.51613607554637   -2.71824603745589
C         3.11960942224928   -0.10142849553081   -3.01952836909393
N         4.19678400677497    0.90264727835715   -2.77992716468347
C         3.78957175931158    1.69320867438954   -1.82912789158789
C         4.31611944034736    3.09013215167101   -1.73689334501127
C         3.72971589059782    3.91609142320584   -2.88808590056102
N         4.41441655909855    4.59024322396309   -3.75776925900496
N         2.39963810858432    3.91507315917617   -3.27396396586048
C         1.35246905505680    3.09529277042942   -2.63419521937488
C        -0.07197284231350    3.56640770127192   -3.02617459868377
O        -0.33038723550566    4.73512481736427   -2.24786343663619
C         1.29711944617216    1.63507639789720   -3.13517036028661
C         1.93371331789261    0.55157894765742   -2.21825533192322
C         0.85669645415397   -0.43004758046577   -1.66081426110431
N        -0.40726968891745    0.25309278714065   -1.34425339171466
N         2.70463131195538    1.19060599085721   -1.13341119736594
H         4.13424368524340   -1.93553765842845   -3.57413082457508
H         2.80519109147427   -2.25302567396549   -2.52642290040481
H         4.23328164483446   -1.52801527773342   -1.83439901922748
H         2.99054416377394   -0.06203683609719   -4.10971406902365
H         5.40329860807677    3.13555676691065   -1.84006882077214
H         4.05715160970387    3.57145317316567   -0.79177974404103
H         5.40598318988870    4.51340043384068   -3.49875502923753
H         2.30296252449615    4.44288747293009   -4.14457953206533
H         1.51212250939290    3.24802480276047   -1.55821028450882
H        -0.74339036297663    2.77506681673936   -2.67745448981789
H        -0.27661396144091    3.84313805312033   -4.06802950613077
H        -0.77250313191245    4.48785438381873   -1.41344260285225
H         1.57585703565561    1.57170788796584   -4.19552878061617
H         0.22966655480123    1.37762540329173   -3.10893704848465
H         1.21675370748154   -1.09809623641543   -0.87882122582481
H         0.62735818887549   -1.10088072819875   -2.49811202965379
H        -0.38498218333648    0.60058860599856   -0.38866642052960
H        -0.94537542657617   -0.61382993344952   -1.38763889456199
H         2.16516217322840    1.76228380250381   -0.48656423291499
