35
 energy: -49.727607390894 gnorm: 0.112685726185 xtb: 6.4.1 (79825abcba525fcdf90b791dcacef51065a7a4e7)
C         3.44931621906243   -1.52006707636016   -2.91412766209222
C         3.03287616793392   -0.07211190228979   -3.12740664794220
N         4.15886455085030    0.84447296415735   -2.78403463846031
C         3.67167694488912    1.62835145505976   -1.86587825156356
C         4.15311468400358    3.00819272211598   -1.54742778911048
C         3.66109860763096    3.89647807066715   -2.69642366130869
N         4.26781425630724    4.92443120823917   -3.20125361705414
N         2.49072762570869    3.58599848688481   -3.36861712335499
C         1.27115471510456    2.97237545992251   -2.80824609729517
C         0.06148657491866    3.75965938041819   -3.37527243211577
O        -0.11812991805269    5.07228540075114   -2.84311004648417
C         1.04402069540359    1.49447243518703   -3.19616920436301
C         1.80518658803974    0.47008474272570   -2.30667045547933
C         0.94543871384919   -0.58408095098718   -1.54255997504132
N         0.00025078178565   -0.02750878628867   -0.56207582919615
N         2.52877084205806    1.17631846429922   -1.23093038320328
H         4.15802008593838   -1.72803250934668   -3.72453921716456
H         2.67523490328813   -2.26459257128617   -3.12772068282110
H         3.78011773058365   -1.75479912220228   -1.90031363282021
H         2.78467456779665    0.08286030177808   -4.18622391325419
H         5.24605130195985    3.01877375137383   -1.54074000895739
H         3.80899970763174    3.43136681003489   -0.60165690498730
H         5.12060502958846    5.20785075469346   -2.70263670701301
H         2.37333585690302    4.19272078687842   -4.18348694269088
H         1.28766288752892    3.07206638549890   -1.71446865730131
H        -0.79149406639072    3.20712898322473   -2.96813389367010
H        -0.00906684720472    3.70292111513395   -4.46876331559906
H         0.67470764015578    5.63956851233806   -2.89276623824899
H         1.41610299330100    1.37440271523688   -4.22242854604539
H        -0.01507077145385    1.24132507395901   -3.05241053546836
H         1.62078018070553   -1.31947427251784   -1.10603515254139
H         0.38308880250960   -1.04238322027484   -2.36560451697639
H         0.59985766123019    0.27435736410421    0.20195620950196
H        -0.60824351687276   -0.76349964263837   -0.20007136628025
H         2.05870097644912    1.76552890417268   -0.54673826527645
