35
 energy: -49.722531847045 gnorm: 0.106230520343 xtb: 6.4.1 (79825abcba525fcdf90b791dcacef51065a7a4e7)
C         3.42070197202642   -1.43416157186197   -2.80642851086215
C         2.91978665190828   -0.06050442064612   -3.22789535908232
N         4.04746637501657    0.91016808743686   -3.11828095034438
C         3.84329183318967    1.63729910548242   -2.05789344804264
C         4.44710767871212    2.96997873104981   -1.74720649194284
C         3.86054937061686    3.72225199267110   -2.94777156201891
N         4.58546591932419    4.51696831298966   -3.67065937194077
N         2.49497508288753    3.84177732187060   -3.14507941979124
C         1.28965528280201    3.13301399803002   -2.67309882261062
C         0.04814206871605    3.94390082602038   -3.12668377183810
O        -1.07882193765628    3.72782752605561   -2.27714836531951
C         1.20568317226828    1.69276407494082   -3.22527665725067
C         1.83676793975398    0.60947673185084   -2.30431400158399
C         0.84520854848806   -0.30372605042690   -1.51871412410514
N         0.22683908277797    0.30656375678387   -0.33141992782764
N         2.72802685309575    1.26683875870011   -1.32805090344532
H         3.50132100253842   -1.42867229814298   -1.71292582699630
H         4.44620130158937   -1.56797786334256   -3.16640962724859
H         2.84470419059604   -2.27971007746685   -3.18803293992914
H         2.54637683023702   -0.08139941941535   -4.26077624054539
H         5.52303528062965    3.06929151333750   -1.91208191634144
H         4.19728923705457    3.32952690862695   -0.74706157866965
H         5.55218352445227    4.46499165569262   -3.32576363551245
H         2.42862073452892    4.09236916123260   -4.13437534758220
H         1.28561709103941    3.20149298082133   -1.57680771257348
H        -0.24300039138017    3.54931098986802   -4.10554153466436
H         0.21615544101590    5.01908547636530   -3.26692925511001
H        -0.87237875111701    4.20115136260827   -1.44876861159298
H         1.56761854957510    1.60837077518188   -4.25869368163609
H         0.14435549496332    1.41047274227405   -3.20738704507926
H         1.40972009780376   -1.18322852083326   -1.21009548448051
H         0.07095464934377   -0.57814985084411   -2.24597142167226
H        -0.65321580657619   -0.18788105166460   -0.20722548205083
H         0.02603163802273    1.27651255753714   -0.58015829920258
H         2.42193732032932    1.65292164340768   -0.43726323610256
