35
 energy: -49.725935520346 gnorm: 0.102281442851 xtb: 6.4.1 (79825abcba525fcdf90b791dcacef51065a7a4e7)
C         3.59752067116517   -1.40267447032665   -2.80136945807493
C         3.03831843870956   -0.03509075217010   -3.16536410374487
N         4.05236185154211    1.02911319778225   -2.91027994518258
C         3.67319292382510    1.62871613227600   -1.81870508195042
C         4.02476391480692    3.05454745420598   -1.53487795512549
C         3.64973825780993    3.87725911196200   -2.77335423625343
N         4.33390544914988    4.89995281414072   -3.18036487844681
N         2.48344092829123    3.53405466783128   -3.43665741285856
C         1.27262212712956    2.92887527766352   -2.84879456973996
C         0.09502018171345    3.79920197132017   -3.35910520916040
O         0.04692675793226    5.12328730949203   -2.82719262452085
C         0.92379824814645    1.43214938111640   -3.00501570148634
C         1.83683966486848    0.41886876917767   -2.25697191803896
C         0.89023583458098   -0.66916350010380   -1.66163708230599
N        -0.02597625402728    0.02179902283536   -0.74096982861680
N         2.59300107178771    1.06338548261033   -1.16501262244000
H         4.53407467539814   -1.50246919929851   -3.36278311732165
H         2.87968373498841   -2.21207008153333   -2.97087155751546
H         3.86038765542360   -1.23056710260912   -1.75560290735135
H         2.60669551340971    0.02488827402265   -4.17373834103298
H         5.08653910319014    3.25119883127794   -1.36567738186386
H         3.48426019355313    3.41575039115056   -0.65774502513195
H         5.22905770140965    4.95812055172624   -2.67885064391248
H         2.43741190814237    3.54116813156899   -4.45829155627498
H         1.40288513408246    3.11122029790798   -1.77346125116242
H        -0.87074186990953    3.31868653051486   -3.17192570779892
H         0.11356844217761    3.74806910933552   -4.45498874559181
H         0.89950244048127    5.56980341201067   -2.99030404670995
H         1.02077365624156    1.19711575883203   -4.07339072412148
H        -0.06939272188682    1.22889575376813   -2.58230475820217
H         1.42377892972427   -1.49933903969361   -1.19948591038215
H         0.18647910876254   -1.11691532425717   -2.37432599749830
H         0.57504757387820    0.33477586222404    0.01745775448593
H        -0.65987101502983   -0.67646002654421   -0.34904276817141
H         2.07788100479863    1.57811859411746   -0.45370774231085
