35
 energy: -49.719743268260 gnorm: 0.116731444290 xtb: 6.4.1 (79825abcba525fcdf90b791dcacef51065a7a4e7)
C         3.67586018987859   -1.47994355209893   -2.72728949108362
C         3.09241763191924   -0.11524963310296   -3.06298240056440
N         4.08319668041942    0.99311870977277   -2.93744953520385
C         3.70344742122261    1.68526328283010   -1.90229021487327
C         4.14220236691078    3.08903585217296   -1.63012919446542
C         3.61643902967472    3.81000876814587   -2.87716294308750
N         4.27932433015946    4.63432440131590   -3.62598310194068
N         2.29756292855803    3.61159723823524   -3.25026956268843
C         1.14822541232027    2.96369285989583   -2.58909622024834
C        -0.09920819270594    3.73920583103056   -3.08620876914506
O         0.09484373985398    5.09361676010571   -2.67833519719565
C         1.08574241011211    1.50031984713731   -3.07991886493689
C         1.87129375688446    0.44765221930629   -2.24640122568071
C         0.96426599123152   -0.63069383770066   -1.57650049480227
N        -0.10590422878007    0.12424545726626   -0.90619881226262
N         2.64998380252802    1.13300150644382   -1.19592746029316
H         4.47668684550667   -1.54774654285743   -3.47318298762051
H         3.03329320252499   -2.32633106241900   -2.99163382381569
H         4.04804029425470   -1.32774345202846   -1.71207287892612
H         2.71024564040697   -0.09362139214063   -4.09263827444822
H         5.21843150766621    3.27624774445851   -1.66686733986470
H         3.86883461632115    3.54837800444716   -0.67815815791071
H         5.27485915514592    4.77721653512683   -3.41458344908425
H         2.08264622565524    3.94575811120233   -4.19263516236519
H         1.17769329753569    3.06887631376668   -1.49610583708365
H        -0.94079021675502    3.31097579353704   -2.53214529564269
H        -0.30911183694519    3.78015084534419   -4.16239801655546
H         1.03662873219154    5.29456065516734   -2.51855459570166
H         1.49958851638561    1.50847669725620   -4.09713815758268
H         0.02047510896597    1.24927532871904   -2.98714435447610
H         1.55445950582055   -1.03109553589266   -0.75261126337110
H         0.67799692901584   -1.51313399604913   -2.16218820484106
H        -0.36132495561398   -0.42256027817750   -0.08756563374136
H        -0.95609643062059    0.14898076282727   -1.47149207355611
H         2.13174694392992    1.76440971140978   -0.58846739621989
