35
 energy: -49.721445490352 gnorm: 0.116555542600 xtb: 6.4.1 (79825abcba525fcdf90b791dcacef51065a7a4e7)
C         3.34849920867874   -1.54489864313473   -2.46815786263457
C         2.80277399182240   -0.23410771363689   -3.01541972968958
N         3.95623728842756    0.67826845624765   -3.26636621069073
C         3.91911559466418    1.55387675611696   -2.30368220816081
C         4.67673683316680    2.84293294871146   -2.34240044740477
C         3.72921512471824    3.84526678415062   -3.01236441265108
N         4.03670174910911    5.08380770247863   -3.23844672105604
N         2.54949153046953    3.46116276632004   -3.62777179876143
C         1.39492258471022    3.16909884052744   -2.75623507394781
C         0.22883826571862    4.02404914678674   -3.31653784460192
O        -0.99716815913903    3.78885739627661   -2.62368933838160
C         1.07944411049557    1.66988030339251   -2.95394363549581
C         1.84491440111185    0.61674133455028   -2.10252998198243
C         0.96929662906348   -0.21028789681056   -1.11075748610466
N        -0.02582358642726    0.61042368832139   -0.40317695868789
N         2.92897768954624    1.30179366371053   -1.37104722756305
H         3.90348557488761   -1.48077475266672   -1.52467710939568
H         4.19140029031836   -1.78360808705284   -3.12517966522597
H         2.55865462991068   -2.29844711283194   -2.44250817084230
H         2.33579047242015   -0.45174542515325   -3.98561281724804
H         5.60343320225103    2.68580545247549   -2.90026416440241
H         5.02435361410069    3.21342328217928   -1.37602915138661
H         4.94790733131343    5.41515651501007   -2.89769766376841
H         2.29146298701134    4.28798821892605   -4.17154249818619
H         1.63447920488867    3.29479504822410   -1.69163515293508
H         0.04848419232941    3.79524311757219   -4.37188035277144
H         0.38647684878650    5.07112880245741   -3.02897287876506
H        -1.06296415107337    2.85141155238636   -2.35961844142821
H         1.33308101808562    1.50048494898256   -4.00895251985888
H         0.00208897919763    1.49242881804740   -2.83460477291072
H         1.71176618449089   -0.77763479702890   -0.55013301046034
H         0.36990366679206   -0.85191992289926   -1.76856986705667
H         0.32719597651282    0.93505676978038    0.49369933409098
H        -0.84256928060696    0.04678470550134   -0.16186254031487
H         2.72239200753367    1.88601149077661   -0.56341776275502
