35
 energy: -49.713510349349 gnorm: 0.128434576201 xtb: 6.4.1 (79825abcba525fcdf90b791dcacef51065a7a4e7)
C         3.54184594165445   -1.44016472068108   -2.67766079065624
C         3.09901242743296   -0.02743285153910   -3.02918829834797
N         4.19902848164339    0.94864031200243   -2.77793571018445
C         3.65102087584896    1.74523160404147   -1.90617978245628
C         4.16939288847539    3.14200612540432   -1.77401957242662
C         3.73559072000053    3.86441694984774   -3.05513645560259
N         4.40392503609557    4.67761289666024   -3.81123592391663
N         2.41688964187446    3.70623849709047   -3.44758632771671
C         1.30388272566939    3.05834327748573   -2.72692387622874
C         0.01514213239762    3.83825903490912   -3.09504196021439
O        -0.39389834185662    4.68223994952926   -2.01855319502576
C         1.10810108536982    1.56802671520012   -3.08315080325631
C         1.85124270572351    0.50058617086547   -2.22976759995344
C         0.96010170918544   -0.64100471288336   -1.64930698260599
N        -0.22665385770091   -0.11127370446555   -0.95974316898103
N         2.61518967977114    1.19375370258286   -1.17361385217323
H         3.64883472303124   -1.57737034252636   -1.59506867075030
H         4.52258743964627   -1.58922367698233   -3.14141678624905
H         2.88219573054341   -2.22306675727188   -3.05749452413700
H         2.97334074443529   -0.07547248536428   -4.11942370478539
H         5.23148931381630    3.18288801872371   -1.51917259630521
H         3.72177950823946    3.65027239807187   -0.91770090627994
H         5.31009048881660    4.78572009450542   -3.33861072330420
H         2.34877528684417    4.12892770214190   -4.37634887344659
H         1.56892154000362    3.18479535741240   -1.66847019874206
H        -0.87327939447094    3.29525312636284   -3.43338994782752
H         0.34103703958808    4.49406176746384   -3.91213107317252
H         0.34248022154989    5.32241311259634   -1.99040723561334
H         1.36271622471809    1.42165150702814   -4.14136421883275
H         0.03435888052839    1.34065960083029   -3.04064499405678
H         1.68615729447679   -1.02039368059457   -0.93073153866536
H         0.73347877783712   -1.34956873860542   -2.45569384528017
H        -0.00941208018582    0.28724211946743   -0.04958511418467
H        -0.93495145053341   -0.84700999412147   -0.96105345230798
H         1.99028459399732    1.74250196701454   -0.58656831864768
