35
 energy: -49.724497107981 gnorm: 0.111303605007 xtb: 6.4.1 (79825abcba525fcdf90b791dcacef51065a7a4e7)
C         3.70771901138772   -1.30207153115879   -2.58580090476023
C         3.06535226280884   -0.05033683814216   -3.16546431320768
N         4.00859507217372    1.09981309270364   -3.05000804481573
C         3.67638760401547    1.67471186888101   -1.93020536811791
C         4.19738275202268    3.01011428376323   -1.50309950549193
C         3.67461997599414    3.78743584825716   -2.71710628956308
N         4.35903398290996    4.57724155971119   -3.48354559961564
N         2.35701543458399    3.62159251977294   -3.11007460079814
C         1.12653966389305    2.98072891501819   -2.60695417318428
C        -0.05363727225000    3.79326065124820   -3.19991824816682
O         0.04465846303131    5.19102024132834   -2.92596199017889
C         0.91244970274800    1.50002779651388   -2.99161142468911
C         1.82680667816933    0.43288420033990   -2.32444762264020
C         0.83129956010727   -0.66469614606394   -1.83600159265883
N         0.00664606882022   -0.04228780346557   -0.78859696505615
N         2.66975859802633    1.00631013699311   -1.25665939469547
H         4.76958944543572   -1.17880785278781   -2.82975773006499
H         3.28113822540386   -2.18110876091418   -3.08023438217329
H         3.74458928926594   -1.30600434760490   -1.49448391084508
H         2.87063529940567   -0.13314274643109   -4.24339886626864
H         5.28703758990234    3.09398067703319   -1.48619072486144
H         3.62079005825445    3.37948734138629   -0.65275932565467
H         5.36621961344142    4.62926540115803   -3.28588885525193
H         2.23264197113689    4.17599468497512   -3.96041281264884
H         1.15925940116064    3.03937714062725   -1.51057391173162
H        -1.04629547414771    3.62840543568539   -2.76854829293745
H        -0.06821667880018    3.72508267616940   -4.29493355793455
H         0.95000531124688    5.45659369846486   -3.17633188443117
H         0.90488452424312    1.52731044599226   -4.08945869307183
H        -0.10880129833898    1.21749977408006   -2.70238974236367
H         1.40877998727431   -1.52111632254033   -1.48886444425489
H         0.19595109673191   -0.97822421849491   -2.67368481799037
H         0.47958189222553    0.18715123016481    0.08208436260667
H        -0.69150832040322   -0.72864036302540   -0.49791552513222
H         2.10725612094144    1.34771248147154   -0.47994265770826
