35
 energy: -49.713864015148 gnorm: 0.128773102749 xtb: 6.4.1 (79825abcba525fcdf90b791dcacef51065a7a4e7)
C         3.67928361727651   -1.43891583532556   -2.56456665500496
C         2.94487555435417   -0.19393251817083   -3.04011452348248
N         3.97526237019585    0.87990764152721   -3.14524459084491
C         3.72992205695616    1.63181133628660   -2.11118589747024
C         4.38116419259399    2.94253741805579   -1.80290720446248
C         3.64184898882388    4.02160993543723   -2.60311824590861
N         4.19026913745670    5.07565649680990   -3.12067595916275
N         2.42663604521631    3.65770950993772   -3.15885542728180
C         1.20486322104263    2.98542217001268   -2.67593943162295
C         0.04362592200941    3.74690747995864   -3.36608426646243
O        -0.07403338068722    5.10448467041063   -2.93995469039173
C         1.04873775749606    1.50258990243870   -3.07980182280949
C         1.83034700951046    0.50509227858608   -2.17756175579462
C         0.94276261826032   -0.58137700399122   -1.49486490656835
N        -0.31879898920912   -0.12701615067819   -0.88945555517748
N         2.74243180455028    1.19702450359601   -1.24542010505414
H         4.68621444433840   -1.61476376813955   -2.96136067058218
H         3.10275591958730   -2.33102522022798   -2.83083482587815
H         3.73213456152205   -1.38081913337120   -1.47544810421644
H         2.58833812021490   -0.22187271096824   -4.07877463454497
H         5.42473560058787    2.85791780858375   -2.11669913742647
H         4.30510247704397    3.07032194785754   -0.72130666608079
H         5.15974576045315    5.25502645879427   -2.83060863024017
H         2.35736449892039    4.27641170411176   -3.97022134140437
H         1.27625434294643    3.13660732783811   -1.59030310323852
H        -0.83671418812571    3.17496871777398   -3.05541572663411
H         0.10730842312535    3.70292838793493   -4.46058401814561
H         0.83097885722999    5.36048191993307   -2.67863971075849
H         1.05042310877220    1.28515075331495   -4.15627177833514
H        -0.00293538182251    1.23750916312716   -2.90619109019154
H         1.56888471660752   -0.95769241720154   -0.68628516982605
H         0.88611955624538   -1.36540607635754   -2.26022147847112
H        -0.56435831226467   -0.59642871064091   -0.02126836262393
H        -1.13712476861388   -0.38220552456524   -1.44462794617087
H         2.30324834890573    1.86803641731077   -0.61843175724423
