35
 energy: -49.710973791405 gnorm: 0.117659555992 xtb: 6.4.1 (79825abcba525fcdf90b791dcacef51065a7a4e7)
C         3.87253844820939   -1.20571550912826   -2.77138300965711
C         3.03681333514181    0.02495822927833   -3.09152380948106
N         4.00572722272708    1.15593425595816   -3.00218669622836
C         3.71504876097498    1.77355113762409   -1.89363635489467
C         4.10551045641541    3.19699220969845   -1.65174762984629
C         3.63562289591231    3.80609404224213   -2.97821770224860
N         4.35971442319711    4.40469794754256   -3.87097166704548
N         2.34554045090489    3.50288852345801   -3.38041609355803
C         1.16824668041687    2.93698855809517   -2.69365298652390
C        -0.07541233070581    3.77347435260625   -3.09144137598805
O         0.07979907680871    5.15255103519267   -2.75602689145603
C         0.88600403628738    1.42612143494013   -2.84822064315849
C         1.88722162838362    0.48376078957915   -2.12057276060286
C         0.94903781536170   -0.66396865482036   -1.63392626079125
N        -0.17559155456444   -0.21775757100046   -0.79690390824626
N         2.69325493237578    1.23115197937771   -1.13504059168463
H         4.80100315630433   -1.28673021179231   -3.34902267543540
H         3.17894015388267   -2.04076349891541   -2.62730544998893
H         4.22446737312386   -0.98591751468921   -1.76134214640995
H         2.63339661755614   -0.02615880102065   -4.11199253633890
H         5.19758617101721    3.23712608445338   -1.67241303206677
H         3.50008864806344    3.54427233208990   -0.81220313169816
H         5.33074048851899    4.65267324328803   -3.64334434987497
H         2.27720525405414    3.66173160146905   -4.38838671305553
H         1.26094983966471    3.10459776937846   -1.61204623518757
H        -0.92361058861471    3.36987737340467   -2.52903868514850
H        -0.24428546564003    3.69182585443799   -4.17252172145530
H         0.91957929666790    5.24961386933432   -2.26795389619045
H         0.68566610509019    1.33393133751440   -3.92406259322845
H        -0.10552809690889    1.31594151524210   -2.38871080355746
H         1.43210354381321   -1.50575865162504   -1.13846641756788
H         0.67554096564614   -1.04597334081223   -2.62536592633515
H         0.12835682310856    0.04030294360453    0.13873314302695
H        -0.85731545301076   -0.94538771172808   -0.57599218927095
H         2.16408346833203    1.64829496239963   -0.37200535402900
