35
 energy: -49.717916974870 gnorm: 0.115077247119 xtb: 6.4.1 (79825abcba525fcdf90b791dcacef51065a7a4e7)
C         3.57218526159860   -1.62227201259211   -2.68810160767414
C         3.00649590107938   -0.27324584618749   -3.10715815444831
N         4.07738501740151    0.76483776476751   -3.06893615937497
C         3.82900436503120    1.58644862312758   -2.09011489648821
C         4.42116769707036    2.93573614454678   -1.83336462084753
C         3.56941164822244    3.98945519409156   -2.55135486859414
N         3.91060941597208    5.21073767840691   -2.81911967968151
N         2.38572442384066    3.60027870555132   -3.15586795644010
C         1.13941196196604    2.99632205299486   -2.64611448633293
C        -0.02629360806095    3.78056261085977   -3.30241404305363
O         0.12553100414115    5.19314064857599   -3.16092718136122
C         1.10605910070881    1.49525467029510   -3.00937175327246
C         1.91732191584432    0.43065463410142   -2.21663529387836
C         0.98473379721340   -0.56072323297347   -1.45391261608058
N        -0.21172114428018   -0.00479576983479   -0.80280417979477
N         2.78264502176053    1.17795301409072   -1.28265563300940
H         4.40770766075245   -1.79423365669080   -3.37702046964857
H         2.91940548601534   -2.48066232412967   -2.87832966669647
H         3.94250580780223   -1.52221112054897   -1.66575226527687
H         2.54481262369959   -0.24367416557617   -4.10349569330410
H         5.40080710379461    3.04740827586080   -2.30506697779387
H         4.40699780720183    3.15320650725968   -0.76356096601130
H         4.79408222821768    5.34902548174579   -2.31261218016820
H         2.22922899585824    4.23496229674531   -3.94237385529467
H         1.12562922225752    3.08724650287644   -1.55153572226109
H        -0.99714377065693    3.49897401461976   -2.88195546169071
H         0.05284996505924    3.46390693799363   -4.34997540909236
H         1.05382674337457    5.47882965412469   -3.25847754134518
H         1.14823244839399    1.29192776616215   -4.08777324672543
H         0.08027219819122    1.18115841895465   -2.77372442536407
H         1.54702352115038   -0.91616098265892   -0.59081491900689
H         0.73390016717689   -1.33972173358453   -2.18461401582729
H        -0.56639182158414   -0.73139292255105   -0.18582620038691
H        -0.95485088929658    0.22196275981566   -1.46562680596185
H         2.20412896823856    1.90145433106169   -0.86061473793394
