35
 energy: -49.716223200383 gnorm: 0.105381686483 xtb: 6.4.1 (79825abcba525fcdf90b791dcacef51065a7a4e7)
C         3.74820952915858   -1.48638600398196   -2.34017395343936
C         3.03653984598606   -0.29053375756047   -2.95576157953422
N         3.97473181980955    0.83913332101085   -3.21944724673760
C         3.72319998209138    1.70810827258439   -2.28326206223514
C         4.28301643611775    3.09290528551929   -2.20517414309258
C         3.56082584248422    3.92755343253901   -3.26965777511549
N         4.21466315165173    4.65535628246767   -4.11962517983541
N         2.19501011379864    3.75541958873055   -3.42107499769827
C         1.25716764516170    2.89116184311352   -2.67850040060340
C        -0.11933130929484    3.58870873023340   -2.83117918317612
O        -0.22347256713376    4.74027271611731   -1.99362265013948
C         1.20435254756102    1.39799360928870   -3.07084048504714
C         1.96011009276849    0.45910309032779   -2.08734322855538
C         0.93773348688970   -0.36899822716438   -1.24871884501223
N        -0.18366276436544    0.35434976256127   -0.62925124553676
N         2.85703790906677    1.31020649076418   -1.28068316471802
H         4.29072002226826   -1.13290171631899   -1.45529604650921
H         4.55905380109041   -1.77078196146239   -3.01899100611857
H         2.99016725581007   -2.24856867657928   -2.14834810468229
H         2.56612884830259   -0.51304985482779   -3.92318832774372
H         5.35221154226848    2.93868432083745   -2.37162192412738
H         4.24705459801858    3.41163461181254   -1.16157826418207
H         5.22313925526533    4.70454101241939   -3.92791087389488
H         1.83161897076458    4.25820690376755   -4.23412935402004
H         1.52168496663692    3.01323689198446   -1.61940259245845
H        -0.88455868478088    2.96195211064257   -2.36189163688181
H        -0.28460126118738    3.87667603933137   -3.87697075147295
H         0.35199420451920    5.46318275230273   -2.30843423627385
H         1.52507064138771    1.22006076786043   -4.10599748861825
H         0.19605163139332    0.96265945088917   -3.08627794722662
H         1.50413764998179   -0.84367390720511   -0.44789883513715
H         0.47035313143795   -1.15324614303601   -1.85715250647143
H        -0.10753135669715    1.29298909766171   -1.01338240515937
H        -1.05267157302161   -0.02493868231020   -1.00867060708256
H         2.65697398093990    1.82423277305412   -0.42511032226285
