35
 energy: -49.719218099833 gnorm: 0.115424292766 xtb: 6.4.1 (79825abcba525fcdf90b791dcacef51065a7a4e7)
C         3.76052531314124   -1.35533590422418   -2.74100759993708
C         3.09140454607881   -0.08614465225983   -3.24787581769960
N         4.03456958726708    1.05171672749402   -3.04393174929688
C         3.72542169662797    1.69495881046769   -1.95512707169005
C         4.03566116898947    3.08623625822515   -1.50207796958415
C         3.57656848035163    3.82402306335772   -2.76549662840989
N         4.38797928300794    4.55017099461191   -3.46832412157069
N         2.29842014078247    3.66535924866543   -3.27458642954186
C         1.12938887568124    2.98699992966979   -2.68204827076276
C        -0.07385423496105    3.91544629744431   -2.98998522902619
O         0.04018138990917    5.08924099460606   -2.18521952339226
C         0.94879220263511    1.53124586022779   -3.16623463013179
C         1.86624949799596    0.49759847928813   -2.45223403325268
C         0.97384063469414   -0.66261112850444   -1.91203349463823
N         0.11495069568862   -0.23583488706714   -0.79638477046108
N         2.58612292329561    1.18287799378878   -1.36056963342381
H         3.87490280226669   -1.09819738368192   -1.68125515036424
H         4.72994481423972   -1.57036188495456   -3.20266952445962
H         3.12010390703366   -2.22790097930515   -2.88536228194397
H         2.84513920756837   -0.14953184461145   -4.31654314424984
H         5.10258969609414    3.16577346785849   -1.27846115770291
H         3.41484597235872    3.28699488613273   -0.62671606722699
H         5.34790874672890    4.68618057354355   -3.12739249183837
H         2.19925922363782    4.13257240754000   -4.17890083926750
H         1.01292146188823    2.98588652418992   -1.58980564046803
H        -1.02733203402833    3.45749009322057   -2.70752498663371
H        -0.05006416864550    4.15159194160842   -4.06124084320364
H         0.66640431957180    5.69363174857015   -2.62728730036797
H         0.97996309731488    1.43042856389403   -4.25936519391493
H        -0.04868368751455    1.23898155591357   -2.81120181518542
H         1.63793064478553   -1.44827424144542   -1.55264333655304
H         0.32714753159057   -1.07429435697787   -2.69688102519699
H         0.59951238539722    0.26744239500480   -0.05725793454188
H        -0.55704444912653   -0.93450365829292   -0.47501340507873
H         2.12641766062828    1.76317336770842   -0.66186953395594
