35
 energy: -49.722432572740 gnorm: 0.129054416110 xtb: 6.4.1 (79825abcba525fcdf90b791dcacef51065a7a4e7)
C         3.70081478689189   -1.39965351936666   -2.68501713256710
C         2.99794072489728   -0.11234192565935   -3.09033348312507
N         3.94623107767762    1.03631742295081   -3.00542700154516
C         3.71637508981052    1.66930874513214   -1.89128309880328
C         4.24085334752433    3.03845980356109   -1.59547423974126
C         3.58575727843439    3.88897396047875   -2.69037012621401
N         4.11368437010847    4.83820529916431   -3.39740454440833
N         2.35839013260742    3.52229544148825   -3.21679828487764
C         1.15626652137052    2.93204610483270   -2.59678899245411
C        -0.04236274520753    3.82898175172912   -3.00104901451001
O         0.31656624266947    5.21087027383358   -3.00081828635925
C         0.89975203555569    1.46987873517684   -3.02403417391751
C         1.80159031789014    0.46695833891074   -2.24892768317013
C         0.99906981648934   -0.71172073074300   -1.61570335018330
N        -0.25494935809261   -0.13771499432241   -1.10339943244459
N         2.61702203476865    1.15427980627508   -1.22803725941998
H         4.50824759604788   -1.54064228279770   -3.41333856394511
H         3.02253995470098   -2.25570086506492   -2.60584473907859
H         4.29577475302891   -1.33107864918469   -1.77196303366582
H         2.70467234898719   -0.12658681716728   -4.14887264876804
H         5.31053061211264    3.00542166602257   -1.81765924308046
H         4.01573780572310    3.33448296496257   -0.56899127611371
H         5.05857199767546    5.07862454304847   -3.07246835690066
H         2.32517196290576    3.88543821340712   -4.17227171603657
H         1.32326861323561    3.23586605644030   -1.55450130376139
H        -0.96681982138414    3.76359012124174   -2.41818484504746
H        -0.23733878426995    3.52193019360558   -4.03624127621980
H         1.26833282886000    5.31410414914377   -3.19147607716755
H         1.12508523961013    1.43349705608325   -4.09826484186047
H        -0.15641530872164    1.32650031587212   -2.75874557389605
H         1.64197845087795   -1.24445218141652   -0.91548263626076
H         0.81237940016728   -1.44827880467004   -2.40710059576127
H        -0.09243926177229    0.35086120291036   -0.22631317251854
H        -0.77861152011423   -0.99617995366416   -0.92504320735071
H         2.09501247543883    1.74002060512238   -0.57944862261182
