35
 energy: -49.725847691390 gnorm: 0.120546373101 xtb: 6.4.1 (79825abcba525fcdf90b791dcacef51065a7a4e7)
C         3.71517076953698   -1.33610775741573   -2.61066927360764
C         2.99330812951119   -0.07874548002645   -3.07266374360853
N         3.97849685023185    1.04127818246177   -3.04381585148511
C         3.68337287635388    1.73120810488508   -1.97998927527240
C         4.26067134195215    3.08974461060440   -1.73861816049951
C         3.59768890090308    3.84167356778801   -2.89895403380987
N         4.24707111306910    4.72793702172039   -3.58632922858793
N         2.29623390632601    3.63681092185104   -3.32586860434963
C         1.16584719446576    2.88661177155645   -2.74506390336441
C         0.01865007111139    3.77620591591842   -3.29021790176910
O        -0.11331842209641    5.03193670376077   -2.62375674703140
C         0.89130082882988    1.38952294241586   -3.00892160037833
C         1.82598621620496    0.46982703903206   -2.17197811877372
C         1.07654068906706   -0.71012955126145   -1.47891936230997
N         0.06557781142313   -0.09510541816619   -0.60473324608964
N         2.63309537993639    1.25409597839824   -1.21643953105781
H         4.68637125537429   -1.56144037260005   -3.06703810501699
H         3.06986668746451   -2.20322931433668   -2.78623957677497
H         3.90522057304114   -1.30958267521987   -1.53571571111210
H         2.64896575134396   -0.15785539238924   -4.11280045625137
H         5.34878007564734    3.03225414552180   -1.82453309402149
H         3.95269349401185    3.43876260428261   -0.75104026704914
H         5.24733611968386    4.91720204694551   -3.44545258218064
H         2.26692167644957    3.98998957182025   -4.28519713776533
H         1.21576464671568    3.11429606497419   -1.67164506076650
H        -0.93254343074349    3.25299339703780   -3.14841809996626
H         0.18678979608297    4.02195894963610   -4.34627368495258
H         0.66543241200359    5.59783482319557   -2.78553968158158
H         0.99527362441059    1.13699715646658   -4.07263706920958
H        -0.15101642329024    1.32001617795364   -2.66955684476204
H         1.81698207541975   -1.31254078006126   -0.95328580789109
H         0.59476792273613   -1.28837165692438   -2.27717482792647
H        -0.17393836751044   -0.67874363931687    0.19301042635963
H        -0.71611946775031    0.19683065025980   -1.19356071120673
H         2.30862683367596    1.75805138173955   -0.39363785443197
