35
 energy: -49.721980014721 gnorm: 0.114856969082 xtb: 6.4.1 (79825abcba525fcdf90b791dcacef51065a7a4e7)
C         3.56523992916723   -1.39897848475284   -2.95184352483957
C         3.01827111884001    0.00574945003684   -3.15932599229148
N         4.00389421295832    1.11193862910910   -2.98389904674431
C         3.60456428650174    1.71370230595945   -1.90073492497555
C         4.15003554272448    3.07788165173219   -1.62032314632011
C         3.56357710857438    3.96322623526777   -2.72646674584343
N         4.28708575006817    4.90207435924932   -3.25062725844575
N         2.36907414692190    3.54821524381712   -3.29121303908057
C         1.16036565106941    2.96515456173404   -2.67723342298230
C         0.03728759277926    3.83604867812778   -3.29761310768828
O         0.25166370854487    5.16507413273862   -2.82202905927546
C         0.87707846796756    1.46771322194501   -2.92960086051542
C         1.81838393508658    0.43957750289196   -2.23907018309564
C         0.97960018188889   -0.73098717643612   -1.63863976207742
N         0.18098800873407   -0.25192989029483   -0.49968204307007
N         2.59446752512841    1.10749094256930   -1.17551819236172
H         3.87532968989056   -1.58236192082051   -1.91623137182508
H         4.46656653190997   -1.55619447157410   -3.55353743645256
H         2.83736718314180   -2.16969659559163   -3.21364979041297
H         2.95146541543991    0.01243338344071   -4.25577787529394
H         5.23821528856563    3.09311189748035   -1.72181216379550
H         3.83294334615885    3.38173765157968   -0.62077421356381
H         5.20547650338200    4.93551275906408   -2.79058610393364
H         2.28847226201508    3.82186890582053   -4.27331415077773
H         1.24081846466199    3.13853649274631   -1.59555605360003
H        -0.90408410854525    3.39943154423414   -2.94859678227082
H         0.14815912207585    3.77893955016822   -4.38773483710236
H         0.24338642783975    5.90662704643966   -3.45677154471826
H         0.83905743020504    1.41118213511080   -4.02569795330272
H        -0.17226026493622    1.37088030284327   -2.61986472933045
H         1.64826968928783   -1.51900914332374   -1.29317511343083
H         0.33986346680384   -1.08008823310021   -2.45872884038947
H         0.73169920006973   -0.09202481628783    0.34028467539654
H        -0.60302112237015   -0.87836324668075   -0.31019321324875
H         1.98056752232339    1.64888810914372   -0.57031625749615
