35
 energy: -49.723982474018 gnorm: 0.107698253817 xtb: 6.4.1 (79825abcba525fcdf90b791dcacef51065a7a4e7)
C         3.37077142171303   -1.52347538110738   -2.49183083344033
C         2.90416516676023   -0.18557511202263   -3.04661539794510
N         4.00489306410925    0.80848822034111   -3.20822661597803
C         3.83365643659567    1.67915085319598   -2.25562333237067
C         4.47302760654067    3.02194192643819   -2.09665296987224
C         3.83200897297157    3.95316920991036   -3.13262258709284
N         4.41768889423658    4.95214706354914   -3.71457368805898
N         2.57364503398421    3.63188124826056   -3.61356342030491
C         1.44834308389299    3.10027859060819   -2.82046752951797
C         0.16121685928924    3.93550108346801   -3.04483615475748
O        -0.89133733053785    3.62995918642944   -2.12983900898859
C         1.09266963484736    1.60324629217991   -2.95707722999426
C         1.88611048469795    0.56589295363609   -2.11191372150368
C         0.91410521246624   -0.20656719058569   -1.16702873927561
N        -0.23902610553456    0.61670965144568   -0.77078970283448
N         2.90147211630506    1.28143160093636   -1.31404020215576
H         3.57521259597941   -1.50865358071314   -1.41467634168473
H         4.23126303877374   -1.89692679368624   -3.05683552237806
H         2.58493168208121   -2.26716581439020   -2.63923541079431
H         2.50426805441114   -0.39248128554787   -4.04860669085706
H         5.42669245287791    2.92131606055257   -2.62111932340207
H         4.42447739693748    3.37034031676477   -1.06309821374345
H         5.41413198432134    5.00104647722962   -3.46777907383716
H         2.29758796305027    4.12755447929874   -4.46444891837267
H         1.72947718235666    3.26333002607583   -1.77121173055670
H        -0.23058153841813    3.71579694481309   -4.04326076173499
H         0.43275684822015    4.99740157683784   -2.99431188890489
H        -0.88933084936799    2.67192580513296   -1.94266188953893
H         1.38902200082900    1.31219223632980   -3.97370549545585
H         0.02205981794795    1.38492251935899   -2.84503165483372
H         1.44615485568019   -0.39048452561061   -0.23400089693168
H         0.69380123775364   -1.17605355988640   -1.63097166821355
H         0.01888563578787    1.05124188137836    0.11185394735649
H        -1.07795734393212    0.04470096491723   -0.66126562235223
H         2.55774999734208    2.06008828833748   -0.75564754416883
