35
 energy: -49.725263851436 gnorm: 0.107668175336 xtb: 6.4.1 (79825abcba525fcdf90b791dcacef51065a7a4e7)
C         3.58521488722469   -1.43779957663510   -2.53410552051470
C         3.11206229199104   -0.06556599949701   -2.99081775895375
N         4.16922884716562    0.97795059520182   -2.85169913305479
C         3.70898810405910    1.81585362040682   -1.96799929726779
C         4.19223360971400    3.21693116426836   -1.76647898299101
C         3.67217159631736    3.90909482995770   -3.03208838321970
N         4.35764619366754    4.73051727955124   -3.76354893617652
N         2.47042528667990    3.43870841912530   -3.53463416801223
C         1.24987400085683    2.96664334301617   -2.85249336626278
C         0.06208486327183    3.94494288819684   -3.04411473907221
O        -0.31147350728839    4.63196258352001   -1.84958385976736
C         0.99462952655122    1.46400539689528   -3.10389140663025
C         1.89136582671302    0.55437683750676   -2.21597723930573
C         0.97288062419508   -0.58480902004516   -1.67474062572664
N        -0.30026806298750   -0.08433707700939   -1.13333299466549
N         2.67657892759066    1.29493769738807   -1.20872010723081
H         3.32683818964468   -1.66822479203140   -1.49370974051173
H         4.66126088867749   -1.40250943544890   -2.73415974159827
H         3.16216224494813   -2.18887937092423   -3.20436910392205
H         2.97125627494644   -0.11738081798509   -4.07902881685823
H         5.27246455978970    3.33679344927896   -1.65071518613522
H         3.78859631026174    3.58999480553575   -0.82314741534893
H         5.31917669962336    4.69554378718375   -3.40239313641238
H         2.31331181973063    3.85115197781977   -4.45719108288025
H         1.52073008436168    3.11351527607438   -1.79815684358093
H        -0.86599417193757    3.45456040184636   -3.35527691274476
H         0.29681265693177    4.68100566444058   -3.82323845787964
H         0.50008853024437    5.12287022753672   -1.61883723635233
H         1.20010383218708    1.26038681543514   -4.16332049020649
H        -0.06713083657427    1.24515944141442   -2.92726684063648
H         1.55755677878167   -1.13744098031156   -0.93976098663463
H         0.74304718159805   -1.25774974724654   -2.51020940202979
H        -0.16385926685443    0.38205880542791   -0.23987675146418
H        -0.98848047150556   -0.83614940601798   -1.06901358917615
H         2.10646910630953    1.90426612992778   -0.62567024912123
