35
 energy: -49.725499324518 gnorm: 0.119705609130 xtb: 6.4.1 (79825abcba525fcdf90b791dcacef51065a7a4e7)
C         3.58862673145617   -1.45496865729889   -2.67678414440624
C         3.00966652611507   -0.11332162204348   -3.10136954675740
N         4.03814632776643    0.96024954883105   -2.97664486268270
C         3.72244567186479    1.65027733466808   -1.91880594505312
C         4.13002025281188    3.06061793208670   -1.63248915192564
C         3.61711652622150    3.85908939470301   -2.83693727843750
N         4.23215516922048    4.88332373179762   -3.33924823893731
N         2.39508629870669    3.50732344596134   -3.38549237757604
C         1.21528578403018    2.94899305279926   -2.69683795709274
C         0.00259881129372    3.84621368146851   -3.05602771690002
O         0.23064769357632    5.22497835075421   -2.76371341931073
C         0.95623212688923    1.47261856774102   -3.07030970118786
C         1.81698471892210    0.46577723510204   -2.25463377905076
C         0.98092156346620   -0.73009894231609   -1.70220717951285
N        -0.08500351901063   -0.14946655880841   -0.87083978878761
N         2.66882264660944    1.08717679598419   -1.22129371714882
H         4.32522870649750   -1.70211791690520   -3.45048464158176
H         2.86088162772598   -2.27192067660636   -2.63075652931211
H         4.02261061394998   -1.25062749809530   -1.69584054208304
H         2.79542807097603   -0.20557617190103   -4.17482443957803
H         5.22220884128660    3.10200336563215   -1.62363038845280
H         3.70399499728353    3.35870448209052   -0.67247827219745
H         5.12965532838323    5.12643234171881   -2.90153916807456
H         2.17081612449212    4.13628092331876   -4.16010259207282
H         1.36581910323453    2.94906815923897   -1.60876645011761
H        -0.83100833362918    3.54056834098988   -2.41547510281804
H        -0.42966125213455    3.69806762673899   -4.05358639013923
H         0.69699344109574    5.58785440701121   -3.54070111065271
H         1.21429953663627    1.41277500587082   -4.13609118652122
H        -0.08141003403828    1.32231754005452   -2.74299756616213
H         1.69756482842311   -1.35798826590788   -1.17341535299039
H         0.37640455423279   -1.17500381029571   -2.50239438152598
H         0.14425944029421    0.62363639001321   -0.25104396462552
H        -0.53236074750031   -0.92842153031041   -0.38494293844074
H         2.17444866479916    1.65911593420016   -0.53958008435262
