35
 energy: -49.727446647175 gnorm: 0.104976828899 xtb: 6.4.1 (79825abcba525fcdf90b791dcacef51065a7a4e7)
C         3.44753493582231   -1.49355601947933   -2.23484321906544
C         2.85513505235459   -0.29604738494295   -2.96321119847382
N         3.93716555604889    0.70779250141940   -3.18092084721704
C         3.82852012025183    1.60965212010669   -2.24835781078766
C         4.58765762246202    2.89283407863069   -2.36797898685246
C         3.82142985476620    3.93490796723171   -3.19156819638469
N         4.34573494342890    4.95923111447680   -3.78781569100749
N         2.47441636305981    3.83464804778294   -3.49736625114259
C         1.42769372354937    3.10871127127157   -2.75218539517742
C         0.07593615102457    3.81354489417076   -3.03607426203024
O        -0.91609112977090    3.19988914190708   -2.21281582081947
C         1.25032155718789    1.61769850967908   -3.11507880662476
C         1.86540127024101    0.59089526491985   -2.12144719727295
C         0.77385409565778   -0.17720801213998   -1.31346284964485
N         0.01129950999577    0.74342255255192   -0.45587795751605
N         2.84930292146698    1.33515145766769   -1.31053584104855
H         3.91931945297008   -1.02813435353172   -1.36129886898691
H         4.25786774810041   -1.90790100819586   -2.84379399636826
H         2.80868397801828   -2.28830173719599   -1.84420737081683
H         2.45694312539555   -0.66889485890970   -3.91670077854542
H         5.53879990818091    2.71754845659073   -2.87716504097297
H         4.76017377086343    3.28970734145273   -1.36562984988138
H         5.34508257248582    5.07247011501011   -3.57644206314857
H         2.20740694198323    4.42678160579744   -4.28729625682174
H         1.78671695014044    3.20289324896705   -1.71836143437164
H        -0.13224820380712    3.62689010974749   -4.09458589184735
H         0.21367754354494    4.87299885640917   -2.78606636638302
H        -1.01479777292666    3.73904228457147   -1.40507938487153
H         1.57065601253161    1.48042510768908   -4.15652591003021
H         0.18805977482356    1.36235444883612   -3.22832279607825
H         1.21912578028511   -0.98453073709963   -0.73259581678761
H         0.20750926002183   -0.74739106444861   -2.06034003504244
H        -0.39461493585667    1.49563927933832   -1.00705850634952
H        -0.70749972775649    0.27116620335994    0.09484582256618
H         2.50918338766111    2.09081188910891   -0.71930872569773
