35
 energy: -49.718780640703 gnorm: 0.106381222624 xtb: 6.4.1 (79825abcba525fcdf90b791dcacef51065a7a4e7)
C         3.75627287128690   -1.46089684087672   -2.81059937500929
C         3.03602121589132   -0.16331939020696   -3.14677602286677
N         4.03076266773152    0.94054634315580   -3.01316505850373
C         3.71917795648511    1.59958841820661   -1.93455163248649
C         4.30423084020434    2.95703623981726   -1.70607087976907
C         3.55341460883419    3.90352915798668   -2.65039516028907
N         4.12951309158388    4.95272938113171   -3.14731995166638
N         2.36124011171085    3.46594031827825   -3.20288573847222
C         1.13778548142337    2.90964775272584   -2.59329214145634
C        -0.00741985301254    3.78804227490874   -3.16035444925134
O         0.04667635286863    5.17604286518538   -2.83024246416625
C         0.99523866264995    1.44026138708967   -3.04810603313273
C         1.86792313273554    0.41649355069474   -2.26690635761011
C         0.81442298112121   -0.58985116834196   -1.70860151052405
N         0.04841691645673    0.12455331636580   -0.67546893292829
N         2.66140034738376    1.07747768046665   -1.21189411764837
H         4.62088154537781   -1.51720745122036   -3.48258050271067
H         3.28036545775015   -2.41931247963885   -3.04317982920479
H         4.11376157012274   -1.45872461150573   -1.77883158438733
H         2.79993313712165   -0.10916633093750   -4.21824430652291
H         5.35365232217059    3.03191120930219   -2.00234007467401
H         4.21211876443292    3.39675994578790   -0.71101689960677
H         5.14689637146201    5.05884465066877   -3.04798025939046
H         2.13758784453924    4.10288291967057   -3.97112359000232
H         1.00309988685474    2.99002005154945   -1.50611231497503
H        -0.87497318023846    3.28036781180276   -2.72648180875755
H        -0.07560870634610    3.79291953368547   -4.25545527832680
H         0.94832347518029    5.50413872147728   -3.00983321306282
H         1.07906618904301    1.42881871087163   -4.14305453443856
H        -0.03924658119406    1.08221329522133   -2.95829110116934
H         1.38096101739792   -1.37768443275247   -1.21282256062101
H         0.21077312598181   -1.00319068810961   -2.52618208812973
H        -0.32355718214566   -0.42283646668448    0.09679801113927
H        -0.73683160921733    0.59940567425990   -1.12368213885010
H         2.17554055725167    1.52059519465927   -0.43482230322971
