35
 energy: -49.722463692584 gnorm: 0.115147548245 xtb: 6.4.1 (79825abcba525fcdf90b791dcacef51065a7a4e7)
C         3.51450892570573   -1.29138903756360   -2.98530512422528
C         2.95787922396993    0.09962117816555   -3.25127197761998
N         4.06868204855907    1.08170936919045   -3.08543516580800
C         3.76310119518866    1.66386776671379   -1.96180694978226
C         4.29341395098300    3.02181087123955   -1.62727165298404
C         3.91371505407566    3.69717109491144   -2.95054014759138
N         4.68016401172967    4.21036953639808   -3.86094014934795
N         2.61242120490846    3.55909695367046   -3.40394910590500
C         1.40575360874769    3.20417814357073   -2.63200811543796
C         0.20955923808616    4.07273100250352   -3.10037418616426
O        -0.89157415151232    3.80209347914973   -2.23278756485681
C         0.92289989988404    1.74370133302766   -2.77389282794571
C         1.83052008413201    0.58609576605928   -2.26780332415927
C         0.88938675726877   -0.45808773648578   -1.59086507480851
N         0.04401014583605    0.30467429319152   -0.65918141459202
N         2.69414439230730    1.18077473074118   -1.22854064859325
H         3.80561682833043   -1.44033163242420   -1.93871544121620
H         4.46311947772734   -1.29594636270161   -3.53235112697817
H         2.87231941523228   -2.09539129580199   -3.35070990932731
H         2.53194889516531    0.06138976519147   -4.26311984785844
H         5.38587052915066    3.04174770678532   -1.59884116039979
H         3.90650328964191    3.43999156415013   -0.69592905144171
H         5.62387716624515    4.27998789933720   -3.45999584680467
H         2.45007927692486    3.71964042784405   -4.40083248484062
H         1.55117886497421    3.47677305313008   -1.57791923156132
H        -0.01203278250551    3.70427295742813   -4.10723228944949
H         0.40544911485559    5.15178591435546   -3.06592167562663
H        -1.65596003309439    4.39546420008848   -2.36121135710114
H         0.60523015765596    1.62142892962986   -3.81802192904373
H         0.05630948579229    1.59054444316299   -2.11663421157676
H         1.47873968256054   -1.22529908863508   -1.08937407809198
H         0.12643032770488   -0.77498219513559   -2.31277648738063
H         0.57808802127225    0.46995199043185    0.19043064022273
H        -0.82546805951822   -0.15715649450601   -0.38767624569344
H         2.30747997857047    1.78894790632719   -0.50960428287331
