35
 energy: -49.721336177723 gnorm: 0.120209090669 xtb: 6.4.1 (79825abcba525fcdf90b791dcacef51065a7a4e7)
C         3.69886517288528   -1.26231627019518   -2.65834931171613
C         3.03753927296284   -0.03532128684880   -3.26877197282211
N         4.05406025099650    1.03531523309651   -3.05358704103569
C         3.68605308508372    1.61038298058028   -1.94512133316800
C         4.11871274758602    3.01090321726530   -1.64762578822124
C         3.68311627288691    3.83874340519482   -2.86263957725582
N         4.33261409562377    4.62426535563763   -3.66310984134446
N         2.33713156868383    3.82417633623975   -3.18840454733966
C         1.22837446396879    3.04176301285908   -2.60840968930015
C        -0.03897535942040    3.90138939310855   -2.85233328838021
O        -0.14601737189715    5.07091939747093   -2.04042964795915
C         1.10823841686334    1.60656479124193   -3.16701948506423
C         1.80411608819222    0.43668320747210   -2.41397033851458
C         0.88222075709616   -0.71846908126418   -1.91394160767887
N         0.14846524798517   -0.28429626048082   -0.71494253136719
N         2.59328115210277    1.03686548171567   -1.32009800812180
H         3.91122762064874   -1.26992961112382   -1.58265329981864
H         4.67354529271164   -1.24627396242137   -3.15723145896290
H         3.12399432782633   -2.12982808198299   -2.98894640596923
H         2.84234865965027   -0.08173182023807   -4.34880026257884
H         5.19677648621392    3.14887914575877   -1.53183136386312
H         3.70507101448744    3.50628971958476   -0.76701990422233
H         5.32687356654171    4.73491130203766   -3.42773112094946
H         2.08116136773091    4.24737908703194   -4.08354938400361
H         1.34869460353375    2.92489768288277   -1.52285663393447
H        -1.00324039767326    3.39397330245610   -2.74579957752997
H        -0.01075146149364    4.10962433384474   -3.92925526683414
H         0.36773976169134    5.77329489226774   -2.48268470073157
H         1.39808905875320    1.51007087162490   -4.22188711872772
H         0.04092565703502    1.37246719375948   -3.05536526821345
H         1.51216722462123   -1.56984837605231   -1.65749648205338
H         0.26784058518493   -0.95447087558320   -2.79173478647169
H         0.34647175473388   -0.82284262998550    0.12479419340826
H        -0.85328397586461   -0.38165876559685   -0.88818836729093
H         2.09537059208558    1.49428681400658   -0.55910899783676
