35
 energy: -49.714413453314 gnorm: 0.122874728423 xtb: 6.4.1 (79825abcba525fcdf90b791dcacef51065a7a4e7)
C         3.63115142264872   -1.45367319311462   -2.46479593761816
C         2.87971288198384   -0.24769740016612   -3.00926533774286
N         3.88046270303632    0.81333224929542   -3.32326831257190
C         3.82838004135970    1.62374817810159   -2.30575083428768
C         4.49125777349713    2.96169137061521   -2.21825203454946
C         3.66061225382222    3.81619215213349   -3.18322799394176
N         4.17745960873841    4.93001425117293   -3.59785304690990
N         2.44534141026118    3.40339028439216   -3.70353677040086
C         1.34579100270467    2.95118528881186   -2.82923332590136
C         0.17064847488773    3.87686529648412   -3.23763066012572
O        -0.87083876798426    3.99109483793724   -2.26773278858360
C         1.01225531965118    1.44438783000941   -2.89695977948131
C         1.89892616006570    0.50160792337116   -2.03386505033387
C         1.01816001673562   -0.33450832766823   -1.05434622461693
N         0.18197943617923    0.61791688434246   -0.30722493648739
N         2.94954916443185    1.24228596902213   -1.30781804679245
H         3.83857409967710   -1.25075661038231   -1.40740368690288
H         4.58320209858929   -1.52725922660797   -3.00082455872481
H         3.04975460418512   -2.37631972090903   -2.52001172958877
H         2.32855112914098   -0.48217762227411   -3.93010959902365
H         5.49887732895731    2.75219537737516   -2.58633000475256
H         4.47727454519256    3.38229864186968   -1.21084547365532
H         5.01326076296306    5.38878612422480   -3.21423559705177
H         2.15546948260797    4.11107252099336   -4.38255497181921
H         1.60147348608878    3.28571150254740   -1.81469965858731
H        -0.16286469289957    3.47707024292241   -4.20073007032898
H         0.64842134320992    4.85088579314272   -3.40175405180746
H        -1.34719983535118    4.84250759516793   -2.23542633432628
H         1.13840065101820    1.28262469299538   -3.97584357554640
H        -0.05466248510171    1.42020404597473   -2.63710135853235
H         1.58672450578697   -0.89451181061994   -0.31233957724717
H         0.50335891870082   -1.02155455208295   -1.73744798665673
H        -0.49508743034323    0.93335139413714   -0.99749884443483
H        -0.41001872393120    0.09336571076276    0.33882407838969
H         2.53620714002953    1.98504760992993   -0.74772252291595
