35
 energy: -49.718956816824 gnorm: 0.115815565298 xtb: 6.4.1 (79825abcba525fcdf90b791dcacef51065a7a4e7)
C         3.57061080722354   -1.33059476770927   -3.19817525947510
C         2.98059139688238    0.06684903510692   -3.07770818909816
N         4.05917048514448    1.05800088670622   -2.79457016319093
C         3.64289844098177    1.79422598380902   -1.80486384319677
C         4.15499383059544    3.19004382106560   -1.64175099368117
C         3.60993881030521    3.91635095707296   -2.87735414889373
N         4.28370508562502    4.78050234322152   -3.56939908054105
N         2.40390106714504    3.44883670780219   -3.37224123154417
C         1.25729263735277    2.89375817402009   -2.62720171448941
C         0.05470170237292    3.72535549903397   -3.14377964935494
O         0.30276095684503    5.11542748382424   -3.35499621132989
C         0.81429694791025    1.41530496958970   -2.69202803141314
C         1.87203072069767    0.47906266288128   -2.04041366910973
C         1.09921036150787   -0.74987554225347   -1.46878782111251
N        -0.10286793994389   -0.31412110683069   -0.74103251054851
N         2.61588555906364    1.27032164799217   -1.04034061643314
H         4.35194706033982   -1.14715035286060   -3.94526259443376
H         2.72530554190207   -1.99040709671357   -3.42009590924366
H         3.97732256228913   -1.86497839098721   -2.33714834971220
H         2.62536121206824    0.25423680882393   -4.10016197482584
H         5.24785742580508    3.17413718586147   -1.63379641437177
H         3.77993105320658    3.65410360370892   -0.72744774746429
H         5.17092624202762    5.04245077063303   -3.12171704575720
H         2.21809837449403    4.01110250964601   -4.20605183436631
H         1.39271273253070    3.19908287815868   -1.58078014390974
H        -0.79350165540451    3.64861002052050   -2.45581977599509
H        -0.29340956058790    3.25972390280962   -4.07433061203383
H         0.87284824303372    5.41176289311526   -2.62011317864560
H         0.71025698445646    1.08125423938089   -3.73301602135252
H        -0.19395758799794    1.35285980742240   -2.26081085993094
H         1.77272255906487   -1.43939390795423   -0.96046794982905
H         0.73432055964862   -1.30989193520481   -2.33879803766452
H         0.02244801189132    0.03367008530465    0.20645560651651
H        -0.64443423579510   -1.16698228492225   -0.59160412357644
H         1.97385669193938    1.83006392322350   -0.48289914366535
