35
 energy: -49.710538537401 gnorm: 0.119919569191 xtb: 6.4.1 (79825abcba525fcdf90b791dcacef51065a7a4e7)
C         3.75407761256457   -1.24034461125495   -2.60091279457225
C         3.07658478738249    0.02028111022204   -3.11793378342604
N         4.01122747297976    1.17080076359143   -2.94873099106468
C         3.59823062272933    1.78117904363210   -1.87555793857241
C         4.15514505647395    3.16312334910214   -1.74429019430084
C         3.63910356173391    3.76234749891899   -3.05804580720399
N         4.40126174908596    4.36505231614715   -3.91566263221017
N         2.31426613219665    3.56002420535521   -3.40716028715604
C         1.22707226223700    3.03132828082179   -2.56075786196758
C        -0.04371586304998    3.87172402646458   -2.84965981381064
O         0.05186681285255    5.29488702759841   -2.78707416228424
C         0.89256689095740    1.53558042859915   -2.75341304794789
C         1.87342468172186    0.46000292622115   -2.20477591860414
C         1.06758249449543   -0.76593516560484   -1.67374793894043
N        -0.13106637440479   -0.41113324949599   -0.89795256874477
N         2.59833819664048    1.17538177636880   -1.13599603227174
H         4.76441642790662   -1.19683421083807   -3.02470520599830
H         3.29494861939267   -2.16505353925529   -2.96595531672241
H         3.95803610887222   -1.29447137420328   -1.52954969662103
H         2.82733867165495    0.01155050216695   -4.18775365763412
H         5.23009347497660    2.99225282481711   -1.64450888651703
H         3.71769792310689    3.81969472969995   -0.98961937887068
H         5.27120720758576    4.49222280251071   -3.38347831916823
H         2.19140556285976    4.01316679651731   -4.31571554873467
H         1.53205426851232    3.21867891858052   -1.52227551014742
H        -0.82321213465829    3.55248179116239   -2.15030472222873
H        -0.35288630135732    3.64207889792231   -3.87708187009613
H         0.48087746708901    5.68049945873846   -3.57455125282228
H         0.74211956224145    1.25360374776454   -3.80409137733858
H        -0.04270388590432    1.22506367942159   -2.26836378680574
H         1.78897698225744   -1.28790623800817   -1.04559226114864
H         0.64614487657392   -1.36460573345936   -2.49085539193206
H         0.02706480220886   -0.19354197925904    0.08288641093741
H        -0.92594339354083   -0.98385690905404   -1.18631556343533
H         2.00579833912102    1.58700732573205   -0.41786344757052
