35
 energy: -49.723988688079 gnorm: 0.109212034898 xtb: 6.4.1 (79825abcba525fcdf90b791dcacef51065a7a4e7)
C         3.45512452166528   -1.47325482259080   -3.01329036653328
C         3.03206182298684   -0.01661250313033   -3.13451547529400
N         4.10017453364443    0.96282173319810   -2.77993714184419
C         3.68398514490450    1.67189771684592   -1.77056800938618
C         4.09650813074385    3.06985069457397   -1.43484911620908
C         3.70303517085791    3.85778215006647   -2.69010415977917
N         4.31114748601233    4.86449748703032   -3.23450147616373
N         2.54251475756877    3.49331782856775   -3.35219777255256
C         1.27810538015825    2.94871191015889   -2.82061497665851
C         0.17798207979302    3.79696619501062   -3.50969060326184
O        -0.06428309359300    5.02327244350182   -2.81981632104046
C         0.93773702576397    1.45706658597152   -3.03372323042312
C         1.82873638200710    0.45916213897726   -2.23983499870138
C         0.88383624892379   -0.62735124383213   -1.63904472957330
N        -0.00402096046086   -0.09853254920603   -0.59187600763872
N         2.55491754292960    1.15618943499670   -1.15984851850808
H         4.45927807183380   -1.39891707932167   -3.44737242196755
H         2.80118386039444   -2.12873245824612   -3.59797212191795
H         3.60574593691082   -1.89185764012012   -2.01607798867836
H         2.86512443856504    0.09405586437620   -4.21460752255009
H         5.15877846456987    3.31269936454818   -1.34956492464597
H         3.63012969630557    3.50237158910850   -0.54749866619063
H         5.20393084473935    5.04188853685190   -2.75735594886496
H         2.52790264516128    3.77352114912451   -4.33564994264170
H         1.21533744881367    3.21359991253680   -1.75644656395587
H        -0.74227193179197    3.20641861785147   -3.56458783794827
H         0.36245830068746    3.99869710811338   -4.57232529408757
H         0.81871921176667    5.38982176979641   -2.62279911091526
H         0.86126104793094    1.27482488112000   -4.11400540534808
H        -0.07250697448939    1.46578478781097   -2.60272911459549
H         1.58300324543924   -1.35371611018946   -1.22551969969680
H         0.21335747663242   -0.87705762307690   -2.47078125674430
H         0.43541034829766    0.13934944177543    0.29396191128779
H        -0.65994731685173   -0.80941956497396   -0.26416370940189
H         1.93244776618445    1.74713936157122   -0.61252499293765
