35
 energy: -49.725115579278 gnorm: 0.106563520317 xtb: 6.4.1 (79825abcba525fcdf90b791dcacef51065a7a4e7)
C         3.39951943963757   -1.43070940714775   -2.67608212965463
C         2.67535412887905   -0.11848983697673   -2.93904375670904
N         3.70584832449133    0.92256003658428   -3.22220246873717
C         3.73778720210152    1.74061090705496   -2.20997666229239
C         4.43238179878624    3.06114306566530   -2.31432255256404
C         3.58244516601143    3.97727887186092   -3.20293106573584
N         3.85884257996751    5.14708546648222   -3.68749457969894
N         2.38250312280243    3.37496767893961   -3.54259292065330
C         1.29664052781904    3.05922061083391   -2.59437713470492
C         0.08631492536450    3.97441831671091   -2.91399707689532
O         0.42940576541294    5.35860265829518   -2.84494396047027
C         0.82468478832804    1.60197207507133   -2.39448721639417
C         1.82524080163633    0.56621991329160   -1.80622132480045
C         1.11501850912163   -0.44949149197446   -0.85848130795258
N        -0.10672705625384   -1.12181666829538   -1.32732944304009
N         2.94068096592266    1.29526759123199   -1.17073754586535
H         3.90485251980481   -1.53738938612023   -1.70885127251657
H         4.14263742107002   -1.46901889388246   -3.47948123950238
H         2.69638891453753   -2.26519654325742   -2.71591105182292
H         2.01493587427204   -0.20135544133355   -3.81294044996721
H         5.34031120094735    3.06475285594593   -2.92286040030810
H         4.63895626035348    3.43485743738109   -1.30951483545542
H         4.80654672765362    5.46950690458085   -3.45490303064483
H         2.10627112026283    3.89004668238621   -4.38181583914349
H         1.64000876938604    3.31678173929161   -1.58327852138166
H        -0.81361085557114    3.81546063713399   -2.31109274901941
H        -0.20275351062990    3.79298100420464   -3.95680063816374
H         1.39508415383786    5.47737150053129   -2.92385195278095
H         0.45736153085601    1.17121209840097   -3.33554495123739
H        -0.05084182923472    1.64182646982823   -1.73245275548418
H         0.92847097039571    0.08749192320157    0.07119184788271
H         1.91494319057541   -1.16984217108023   -0.64659430057275
H         0.10992691538655   -1.86807375483437   -1.98349859085013
H        -0.50796487470343   -1.52123573921294   -0.47734844220714
H         2.64369846512452    1.98654576834804   -0.48503400260148
