35
 energy: -49.724517517555 gnorm: 0.097740034083 xtb: 6.4.1 (79825abcba525fcdf90b791dcacef51065a7a4e7)
C         3.54793885305980   -1.64845295835943   -2.58825434874815
C         3.08031845286080   -0.29164438417156   -3.09410623350968
N         4.09689215208129    0.79969534341317   -3.13202107873342
C         3.88744959136020    1.62916620649644   -2.15072584994380
C         4.44121900176000    3.00783211130349   -1.97817240072783
C         3.59499142293718    3.98079575573226   -2.80796923987577
N         4.13859530100635    5.06209832979163   -3.27156859202171
N         2.27644256068303    3.72532348121321   -3.14586364262882
C         1.18381535963229    2.85130070323428   -2.67665478768029
C        -0.13497794887065    3.52878215858737   -3.13100589626778
O        -0.29784890787059    4.85791496516398   -2.63570296390016
C         1.29486813255699    1.41734379676905   -3.24030933779005
C         1.96516073300342    0.42522446516886   -2.24715334228059
C         0.84711683860095   -0.39996235257031   -1.53768791756638
N        -0.03489277813793    0.53130806439573   -0.81706565486119
N         2.82647156696700    1.22964133802238   -1.35798849012164
H         4.55983341767453   -1.81542534359204   -2.97615549848761
H         2.86280720532943   -2.46553959040627   -2.83746540064489
H         3.62140674042028   -1.76332252132614   -1.50485454906602
H         2.79978871307102   -0.47711045011760   -4.13986903876411
H         5.50980018887729    3.06388775824730   -2.20101570885343
H         4.35459610209655    3.32433576836340   -0.93687709807532
H         5.09475292969856    5.34507247291606   -3.02280007025490
H         1.93209426172795    4.42543516205475   -3.80705459743995
H         1.13668894539684    2.75582663961679   -1.58339192178598
H        -0.98745569839368    2.91583333317127   -2.82083977915471
H        -0.30778632049036    3.64007962022922   -4.20881361125019
H         0.11495702795646    4.79799118961449   -1.75316816984170
H         1.80192069681510    1.43842017578896   -4.21423115960539
H         0.28535024066109    1.05270785098561   -3.47341692541415
H         1.15963136996291   -1.21380647467720   -0.88390218321204
H         0.20075349259791   -0.85457872771723   -2.29875237123482
H         0.37808662095570    0.65422026267488    0.10420366003633
H        -0.96293426116818    0.16606879701034   -0.59721485930244
H         2.38984397194932    1.90917996580008   -0.73844261110149
