35
 energy: -49.725857687161 gnorm: 0.103456921879 xtb: 6.4.1 (79825abcba525fcdf90b791dcacef51065a7a4e7)
C         3.72336430294665   -1.33374307587593   -2.37655944431566
C         2.94921206807071   -0.24746567027220   -3.10879860707721
N         3.95454347902061    0.83084643389571   -3.33778286046905
C         3.81953681716789    1.58133578888357   -2.28262061508800
C         4.42321820834650    2.94428116930305   -2.15972382945072
C         3.60786411147602    3.81843480426169   -3.12012754497835
N         4.07878792019455    4.68269974659729   -3.96328926196604
N         2.24023182745664    3.66235570246485   -3.27254500951626
C         1.17181302719666    2.93459049032112   -2.56068403842586
C        -0.17030374086851    3.62056685184527   -2.92508883187170
O        -0.34578123971143    4.86904175805766   -2.25504105929246
C         1.17155913397670    1.46216243866365   -3.02783191243780
C         1.93914950145160    0.45274272845053   -2.12681659153095
C         1.02490298908114   -0.38843461231117   -1.18295718010497
N        -0.05818023630203    0.40455529449846   -0.58079464521592
N         2.92501538796092    1.18285258358533   -1.30549751106666
H         4.02433529116413   -0.89902144061779   -1.41598084060316
H         4.59372645018281   -1.62118574056607   -2.97571596413737
H         3.08148010250587   -2.21188708076480   -2.28066651446606
H         2.47345769293958   -0.50619614783061   -4.06453431798433
H         5.49876614859901    2.94642057028558   -2.35429819945572
H         4.33766077957777    3.26349730531250   -1.11916869609902
H         5.10189662039509    4.75400211937701   -4.02933560486851
H         1.90765215182571    3.96642673253500   -4.19060664565080
H         1.26075031290393    3.08514503838788   -1.47625636738901
H        -1.06489495561794    3.10419108786068   -2.56219735671888
H        -0.26307574200619    3.78624513050093   -4.00576611659066
H         0.55989248847617    5.22689076309471   -2.32261657550153
H         1.60825572080159    1.43720637370246   -4.03517669486202
H         0.14628255408667    1.12870014762014   -3.23767879704547
H         1.66271215252446   -0.64223821665161   -0.33665547637285
H         0.67109584168308   -1.27041219642472   -1.73124246900972
H        -0.27533481300573    1.20870741520477   -1.16438679400166
H        -0.93143113677946   -0.10320060401277   -0.43042211610953
H         2.55802369615996    1.82748349897974   -0.60834503468180
