35
 energy: -49.727318386951 gnorm: 0.107165140418 xtb: 6.4.1 (79825abcba525fcdf90b791dcacef51065a7a4e7)
C         3.74903663093387   -1.44148380344399   -2.70501955665804
C         3.00694387695551   -0.16874022263669   -3.08568548927564
N         3.92829118909930    1.00470255133472   -3.07992458996441
C         3.66676561450960    1.66493573537288   -1.98881280237744
C         4.19775210293127    3.03739321492159   -1.72128944808968
C         3.61674631310766    3.97942621221394   -2.78257560014614
N         4.08110570332033    5.07092833643740   -3.30472336056972
N         2.44963728227140    3.53834583451166   -3.38366999619805
C         1.27377401725569    2.93625135179393   -2.72584418469971
C        -0.03112716866418    3.65103431957847   -3.16282248930661
O         0.05278107217792    5.07178695475816   -3.04938830304036
C         1.02800126055091    1.43064492568995   -2.96877745666801
C         1.83252923594689    0.35740110250922   -2.18084718229947
C         0.93384638681933   -0.67325823471617   -1.42957691732408
N        -0.07818735224581    0.08158180837212   -0.67425831163596
N         2.61407876424104    1.17815025015459   -1.23474564490435
H         4.31007449978920   -1.76990500832155   -3.58799956889327
H         3.06039087047428   -2.28235338675151   -2.57142525582580
H         4.49729483550436   -1.19936853064119   -1.94749891776338
H         2.62932870752167   -0.30026435118229   -4.10882898261698
H         5.28654563492640    3.13270460803601   -1.73184964717790
H         3.92299872090927    3.29412691922427   -0.69631511467798
H         4.99634781606403    5.28996705222432   -2.89174456556251
H         2.27460466036129    4.05458684412457   -4.24898173176586
H         1.48047496089874    3.24690094497403   -1.69272684229665
H        -0.89142628484037    3.32083408326824   -2.57165345576298
H        -0.19501310620322    3.38647940413232   -4.21499710845106
H         0.89763256025194    5.37885960991515   -3.42991373957396
H         1.21250451673706    1.21627260028033   -4.02994345207110
H        -0.04149656097810    1.22912291730769   -2.82049339472114
H         1.63233809928778   -1.18938513933740   -0.77142365958329
H         0.46074424881344   -1.41389598325116   -2.08631947786758
H         0.17766742229330   -0.01748243195723    0.30508899678917
H        -0.99702625077862   -0.33405977283813   -0.83541736466608
H         2.21030127491355    1.84133590431753   -0.57641289559266
