35
 energy: -49.729162901796 gnorm: 0.111396432265 xtb: 6.4.1 (79825abcba525fcdf90b791dcacef51065a7a4e7)
C         3.56759006228819   -1.47681870955375   -2.57777531932617
C         3.04149597457120   -0.13282597796494   -3.05984690264107
N         4.19519260040828    0.79600306943400   -2.88056301154388
C         3.82899245123296    1.61126422561541   -1.93395056103344
C         4.33058546761889    2.99922077220390   -1.69077155104019
C         3.71534671409179    3.78568694296669   -2.85450452520921
N         4.36804649530069    4.66155999030870   -3.55198155854177
N         2.34749867112342    3.83735467192511   -3.06505621772611
C         1.18766759893949    3.01607856668063   -2.66730704170308
C        -0.04471153817943    3.77002881324426   -3.23071854563950
O        -0.30984523408427    4.95870351592808   -2.48559940527270
C         1.16324477146634    1.54279645654292   -3.13111183152494
C         1.89078831228213    0.52184172106513   -2.21008874680904
C         0.98641941184255   -0.54629268145724   -1.52052195567956
N        -0.26844763532085    0.04852532930049   -1.03472137209449
N         2.71836532881015    1.22115905687321   -1.20727844372204
H         4.44862792791325   -1.69792240283788   -3.19191139806988
H         2.88331591565709   -2.30764993608533   -2.77934528043885
H         3.77122509083174   -1.44500026034650   -1.50545632172073
H         2.80385853665186   -0.29718985009061   -4.11967113013276
H         5.40988053282265    3.06618552173303   -1.84984711528160
H         3.98985229362300    3.32049452822935   -0.70453725806832
H         5.37991228489740    4.76136683441891   -3.40243631590211
H         2.08380104961135    4.38197090884920   -3.88953321550878
H         1.09679781861502    3.07463433572549   -1.57420421449310
H        -0.89028263498396    3.12988103422890   -2.95896876671879
H         0.01711264259086    3.85696375216366   -4.32275307535684
H         0.43726596054330    5.54952093750311   -2.69920394385989
H         1.59221063859915    1.50900660402344   -4.14151607838198
H         0.12876982179800    1.20006394078363   -3.26830101174370
H         1.38304228475120   -0.98132308287125   -0.60352566015739
H         0.83016608975517   -1.32502346560441   -2.27738652534176
H        -0.85675786366179   -0.53120260516960   -0.44125432653020
H        -0.84340188100930    0.31000499686279   -1.83724930641829
H         2.24816587055299    1.89142433385190   -0.60237314568321
