35
 energy: -49.723346094680 gnorm: 0.111185663996 xtb: 6.4.1 (79825abcba525fcdf90b791dcacef51065a7a4e7)
C         3.77954241524612   -1.37108142016925   -2.70745069254120
C         3.10365025338051   -0.08757152324860   -3.16707724931353
N         4.14440271431457    0.95417205797747   -2.92731354353918
C         3.69274305795748    1.68478789705848   -1.94903317898830
C         4.19567138844977    3.06477682860698   -1.66645827226976
C         3.58187234318121    3.92345697019538   -2.77877177619683
N         4.10291665987877    4.93828149063113   -3.39382365922783
N         2.37760988730860    3.50931606038400   -3.32305947131391
C         1.17462324114752    2.89580241971246   -2.72780228072782
C        -0.05454883965759    3.79467088835078   -3.02072428797924
O         0.12101725842386    4.90645834139232   -2.14234443266969
C         0.99712042768899    1.43263608000469   -3.19030478799618
C         1.86929049232840    0.45222203610496   -2.35480530389205
C         0.92597848931181   -0.58993971645863   -1.67778394744556
N        -0.13360003436534    0.01216000715598   -0.85360480994444
N         2.61345549455097    1.13691672605871   -1.27918056370319
H         3.99617452970817   -1.12790303882966   -1.66044902707491
H         4.70988872543057   -1.66665805183064   -3.20366866214818
H         3.13203833189190   -2.24256027136971   -2.82411576578430
H         2.97320108516088   -0.12939043714130   -4.25700780256780
H         5.28674724311010    3.03918981627384   -1.60674300078010
H         3.83614531296683    3.45346009992727   -0.71165969945118
H         5.04967271140854    5.16706390586601   -3.06593777755042
H         2.21674817092975    4.07328182137707   -4.16089700473471
H         1.37288725693985    2.88667087636025   -1.64744683436462
H        -1.05329960640677    3.41035014913320   -2.78959215447081
H        -0.09930346387661    4.04774803707673   -4.08743339033864
H         0.77956922275824    5.43606002789218   -2.63091236715555
H         1.40140691496821    1.36500446279808   -4.20915149917374
H        -0.05727257654539    1.13244234179835   -3.12274751563352
H         1.56732006480090   -1.24565991444909   -1.08943424633175
H         0.42078053957631   -1.14003904570337   -2.48142968460340
H        -0.70770353114272   -0.77398918301194   -0.55903535098159
H        -0.64659582310823    0.65465436691681   -1.45943597917388
H         2.21460711773187    1.66854380975891   -0.50811241126430
