35
 energy: -49.726233554407 gnorm: 0.104715447031 xtb: 6.4.1 (79825abcba525fcdf90b791dcacef51065a7a4e7)
C         3.57835059308273   -1.56354102550003   -2.67595549398565
C         3.10620147593976   -0.20982807574081   -3.18587793012812
N         4.10795247578202    0.89277816861827   -3.10441384200099
C         3.77822130272931    1.55006990454170   -2.03013579073720
C         4.26623816294999    2.92201122078571   -1.68841737382114
C         3.48289288241619    3.89247270172755   -2.58054788090998
N         3.88945054303776    5.08744317540142   -2.87448875700708
N         2.34092332603802    3.55074470921102   -3.28562754868156
C         1.13960800985082    2.84062140054666   -2.80555113367069
C        -0.02656697135537    3.71243169963271   -3.33904391355113
O         0.02710917016351    5.03248522476364   -2.79772744390909
C         0.95623987466408    1.35533958086500   -3.18841608354467
C         1.88793867760022    0.39474720837081   -2.39522549129092
C         0.88846718934855   -0.48839679075767   -1.58565153877527
N         0.40479585394409    0.39239743906372   -0.51105135695859
N         2.70592887691055    1.01855152490320   -1.33630285422314
H         4.46114592224855   -1.82823522945397   -3.26999847754827
H         2.84343410940829   -2.37524583956302   -2.66272178947773
H         3.99210513305423   -1.47966261066005   -1.66892061138549
H         2.90937267524539   -0.33416948802858   -4.25942906873998
H         5.29667096739461    3.03600269105684   -2.03465618861616
H         4.27091551326097    3.13805142683431   -0.61824041151983
H         4.73688807848282    5.37209476921409   -2.36751670947418
H         2.24861425735500    4.21261454594862   -4.05978059911933
H         1.11404456436422    2.83277277174331   -1.70744148850305
H        -0.95264416017953    3.23939762130989   -2.99662984203791
H        -0.03007260495412    3.80275206575329   -4.43254712266056
H         0.83057307327654    5.45684488853664   -3.15442324295563
H         1.12056346074106    1.29084579319986   -4.27234805195056
H        -0.11646110937327    1.14382506494921   -3.08353959457688
H         1.37978923655675   -1.37957441389319   -1.19597417060859
H         0.03140506663294   -0.76672906073700   -2.21147609221436
H        -0.15886022888875   -0.12064036702447    0.16235830309995
H        -0.20698150057512    1.10111108295465   -0.91903239512767
H         2.31688049973232    1.56480268261685   -0.57046703012176
