35
 energy: -49.724220285110 gnorm: 0.106061955628 xtb: 6.4.1 (79825abcba525fcdf90b791dcacef51065a7a4e7)
C         3.61084101373569   -1.48240597291472   -2.60877817381946
C         3.03731888284292   -0.17271000730813   -3.12959799718697
N         4.03586244811200    0.92837367843390   -3.00150638287519
C         3.74136338420226    1.60201757847030   -1.92712163107437
C         4.24564130629138    2.99455059601385   -1.71805118984650
C         3.57403229423545    3.94636223027788   -2.71520618856801
N         3.94251674143605    5.13632877298177   -3.07275845033644
N         2.46954816668168    3.41199187111884   -3.35752461446097
C         1.20911589304353    2.86618694589116   -2.81778908741466
C         0.06898556649769    3.79876503332488   -3.30259087917852
O         0.10743770158594    5.10024319536742   -2.71682473051752
C         0.93597434920027    1.38024736264154   -3.13973439943114
C         1.81880562429281    0.39966591414997   -2.31570730763680
C         0.88259864333732   -0.60419393460902   -1.57403456743144
N        -0.11571363749940    0.18898618383883   -0.84004555642795
N         2.65254347909756    1.04390488244117   -1.28159209570361
H         4.63822597090171   -1.48539308597799   -2.99185638181464
H         2.98385301145901   -2.33733785301422   -2.88285773441326
H         3.61792306390724   -1.28323718626975   -1.53517242169270
H         2.89663094368010   -0.21085683109958   -4.21838913312761
H         5.27424808881909    2.95528238605598   -2.08560150720651
H         4.33952336615855    3.31742623060306   -0.67934456580101
H         4.77329867903972    5.53991108010694   -2.62206981229481
H         2.28561896928236    3.96189800765587   -4.19994902739221
H         1.23938723667696    2.98727930561625   -1.72646870586483
H        -0.82238512233917    3.21739680988044   -3.04549774328079
H         0.10743103683590    3.82709933689432   -4.39878358207949
H         0.88597982031925    5.57435691603909   -3.06604616353806
H         1.16450967179880    1.19613621865409   -4.19800889276157
H        -0.12503367446409    1.15969617355927   -2.96072596803820
H         1.58197501452632   -1.13686739448578   -0.93015954402838
H         0.47363880276293   -1.26409088007316   -2.34925620050489
H         0.41549314558302    0.53744189107727   -0.04581982343448
H        -0.78995474856734   -0.46074025466653   -0.43230842763574
H         2.25008680176305    1.38543925825798   -0.41116900631411
