35
 energy: -49.725117128363 gnorm: 0.113526784389 xtb: 6.4.1 (79825abcba525fcdf90b791dcacef51065a7a4e7)
C         3.59161571333473   -1.25212014514738   -3.13857304514279
C         2.91970440051188    0.11167834420318   -3.20239525441087
N         3.97902652931273    1.12145702757703   -2.91245453378022
C         3.72356499043314    1.67492252969419   -1.76213121153332
C         4.15125607043692    3.09876297140820   -1.59807742292081
C         3.61136699786719    3.83810850611087   -2.82820348986171
N         4.22908218987026    4.81450737686598   -3.41533037141264
N         2.42570906220542    3.36500859632490   -3.36523380630379
C         1.19673437949347    3.03273869865807   -2.61882581541443
C         0.00351356327984    3.76400458555226   -3.28673755272967
O         0.22031181917354    5.15757617929225   -3.50900467750835
C         0.83889728303776    1.53004224292003   -2.60753623662726
C         1.86587842670358    0.48043959096907   -2.09412060064507
C         1.04024750642299   -0.72915657125292   -1.55606186230878
N        -0.00168807965291   -0.35844962205401   -0.58577914962915
N         2.69799965057986    1.09233377946325   -1.03926674019670
H         4.43669201569077   -1.21849858516703   -3.83642210569080
H         2.79721427833035   -1.97546700538041   -3.35032231936417
H         4.00623039532089   -1.57400835079968   -2.18106048646029
H         2.55559000734305    0.32799047896409   -4.21597512981562
H         5.22812691583622    3.28334906139416   -1.56734821824232
H         3.71262592235402    3.46345294123611   -0.66717527476072
H         5.17043744531980    5.07073287902736   -3.09222616059224
H         2.34524912846584    3.80280740519401   -4.28597480807446
H         1.35411993505977    3.40629149470506   -1.59792035418893
H        -0.75830875404874    3.80612773223413   -2.50157515612990
H        -0.33323899898346    3.18806876658987   -4.15783741127184
H         1.00388830685908    5.40401150951868   -2.98161035096232
H         0.54148959462690    1.22470024282959   -3.61965536063903
H        -0.11062408204194    1.50188584412165   -2.05613688540461
H         1.67465660640281   -1.48143352247553   -1.08803641259961
H         0.56599256837717   -1.28807105199726   -2.37238137446867
H         0.39859005724563   -0.25757209854845    0.34373560107627
H        -0.68282521504506   -1.11879865218708   -0.55550312496260
H         2.16986404388924    1.58361876120000   -0.32095948207728
