35
 energy: -49.720966738931 gnorm: 0.112223030667 xtb: 6.4.1 (79825abcba525fcdf90b791dcacef51065a7a4e7)
C         3.57508088227315   -1.43927057843836   -2.88580146857961
C         2.93571965198904   -0.08353949956016   -3.14789858965702
N         4.03485937181025    0.92136258807663   -3.05876009481616
C         3.77312515786351    1.65279120660505   -2.01408991100988
C         4.39527175427045    2.98767664724579   -1.75299719087681
C         3.63697557701198    3.90037977082956   -2.72422430723591
N         4.11606160738816    5.00093757740078   -3.21299205330463
N         2.42174202272901    3.55249889986175   -3.29008308733455
C         1.22919573143964    3.01612303960657   -2.60594768232773
C         0.01073955845195    3.71682534786700   -3.26093827271540
O         0.04695840832094    5.12146873360691   -3.00773654551394
C         0.97453290512676    1.49751997404502   -2.72949164997603
C         1.90796113683343    0.43781008448461   -2.07705132842492
C         0.98428491491737   -0.64483823007229   -1.43752696768511
N        -0.32457689424082   -0.11819922659960   -1.02035303335256
N         2.78057111773409    1.20102361988239   -1.16293216246069
H         4.44351041385229   -1.44686118728018   -3.55516700067240
H         2.97101600852805   -2.28520655970516   -3.23024307766355
H         3.92723798099014   -1.56350130157260   -1.85969242481882
H         2.37311607317619   -0.14952712253860   -4.08908787306641
H         5.46725094722524    3.03535122907346   -1.96097526928549
H         4.24586567018578    3.39635654458201   -0.75168177500688
H         5.08744009964998    5.11740600027218   -2.89825962237504
H         2.25619899997035    3.99752618007407   -4.19587104349349
H         1.21793416912356    3.15808819506475   -1.51678334090162
H        -0.92721715460592    3.40033133436800   -2.79328846904392
H        -0.01132369412953    3.53699603024493   -4.34310922141389
H         0.92920492402351    5.51279489876241   -3.15392881006220
H         0.97995158078075    1.36999956491927   -3.82026174450612
H         0.00799046272851    1.42417907419689   -2.21292442291627
H         1.50219666917770   -1.09214557936797   -0.58951346276013
H         0.82849157809370   -1.46700879532273   -2.14706533802525
H        -0.26925650944675   -0.12363339148398   -0.00482033347702
H        -1.15351153396725   -0.67135871996861   -1.24368466893649
H         2.50710657747298    1.83846004034447   -0.41785134209427
