35
 energy: -49.717603901562 gnorm: 0.121778003283 xtb: 6.4.1 (79825abcba525fcdf90b791dcacef51065a7a4e7)
C         3.52924566564706   -1.32654467056148   -2.85263193606712
C         2.98544649646162    0.05413789883707   -3.18950367100021
N         4.02901844612810    1.09257181665527   -2.94764709628303
C         3.61499402135779    1.66417408795723   -1.85371699317791
C         4.22140744574015    3.00505709543838   -1.58641473770197
C         3.64637894855801    3.85005161332079   -2.72950209617687
N         4.20551447247988    4.92026578281409   -3.20030346172043
N         2.44622714211975    3.53189144077695   -3.34303254257904
C         1.21211030965194    3.01065655508103   -2.72401975761190
C         0.07249742255478    3.92077947833343   -3.25088841267932
O         0.16482629069226    5.18855045464052   -2.60075142911878
C         0.82953554704020    1.53731541310878   -2.98702921627819
C         1.75789840821896    0.49020088688727   -2.30758439954320
C         1.09550551844156   -0.78284065877770   -1.69529569944170
N        -0.03447266239202   -0.43853755262778   -0.81830843655203
N         2.51591198364361    1.12377024804262   -1.21051455336971
H         3.75276552319193   -1.43898473653693   -1.78507688426841
H         4.51141196764995   -1.40744896469644   -3.33006877577016
H         2.82334940306228   -2.09493225946649   -3.17456150931602
H         2.87565740961296    0.22319847462728   -4.26935519055760
H         5.27261840477990    2.81595167743920   -1.81849622710280
H         4.06690930721658    3.37584631180565   -0.57122032809975
H         5.14495630633461    5.04784055805445   -2.80360296076794
H         2.36255535681471    3.75459457250049   -4.33767214790782
H         1.20084362937741    3.16223673639533   -1.63615193484048
H        -0.90279345992589    3.54986510306939   -2.91944034795227
H         0.18036784787537    4.02589360947731   -4.33773445671434
H         0.66113250490372    5.92638792479115   -3.00342160322119
H         0.79156940610559    1.31549104424770   -4.06193513336813
H        -0.20937227361455    1.36407655320854   -2.67544662233227
H         1.86978855252213   -1.21604585170547   -1.06263274766629
H         0.75744029430994   -1.54453231727906   -2.40889112111745
H         0.32086768479220    0.03918568790938    0.00625828694876
H        -0.68949043297289   -1.21518237236469   -0.71453161273440
H         2.12973578320832    1.64985454262166   -0.42926123514816
