35
 energy: -49.724913488831 gnorm: 0.097883306695 xtb: 6.4.1 (79825abcba525fcdf90b791dcacef51065a7a4e7)
C         3.50456001921740   -1.43774492208970   -2.42506724987580
C         2.92834435371164   -0.14075338727978   -2.97395059055471
N         4.06588374771592    0.82451683516877   -2.98576344473988
C         3.86576436835966    1.71925673309264   -2.06152257640679
C         4.47313373625924    3.08406900803865   -2.13598634930411
C         3.84216879706610    3.72033058837154   -3.38032418420933
N         4.53559466425305    4.30594353528208   -4.30545274989723
N         2.47262251183570    3.89895131900547   -3.48253700501125
C         1.43196500259632    3.18973188563760   -2.71315626637083
C         0.06744406531642    3.92297491164468   -2.78435396694403
O        -0.81996071825600    3.39061191270407   -1.80071361207794
C         1.23231026109326    1.69113286205649   -3.03034783520358
C         1.89985834004479    0.65130261692586   -2.08531644299544
C         0.85905916437053   -0.18006474293174   -1.27299756381513
N        -0.38688816425613    0.59128699444860   -1.14210167527563
N         2.83433872698353    1.37960649046279   -1.20447773399513
H         3.60843322583535   -1.26418814876987   -1.34740028371161
H         4.49828326165096   -1.54467996657801   -2.87252797307232
H         2.91720026580193   -2.33583016499291   -2.62705507981945
H         2.58918456432948   -0.22749680067445   -4.01518094224186
H         5.56096247373490    3.11445317725223   -2.23783221356261
H         4.22728747433319    3.62297937149358   -1.21886626889033
H         5.53266162613395    4.07356989465752   -4.39521648267874
H         2.12695614376703    4.55929469916629   -4.18279907837170
H         1.67651514996396    3.37329433922516   -1.65813970562542
H        -0.33127527192597    3.90344834082222   -3.80379950092255
H         0.11735991391500    4.96366349485732   -2.44026820671261
H        -0.97423948956033    2.44116554663396   -1.96689700236768
H         1.60759910614233    1.56149274448370   -4.05427260852918
H         0.16958549333556    1.45168684406556   -3.17072782467214
H         1.22028873983910   -0.28763841863979   -0.25055711799059
H         0.72588024757823   -1.16079979202762   -1.74639258716109
H        -0.32353315409966    1.09524319144668   -0.26095989646804
H        -1.27185000788395    0.08154435882959   -1.14184688531200
H         2.50185681262912    2.01220393751106   -0.47954343921931
