35
 energy: -49.722420403090 gnorm: 0.118945595876 xtb: 6.4.1 (79825abcba525fcdf90b791dcacef51065a7a4e7)
C         3.40764251518255   -1.49668940625044   -2.29964774564578
C         2.96098318357136   -0.29005591188587   -3.11206112725314
N         4.02404526349337    0.75348936328327   -3.19448856125320
C         3.81799614668359    1.55321400390917   -2.18810261676071
C         4.44516354577064    2.90377700247146   -2.04740596926117
C         3.81510521078126    3.93339958724114   -2.99304119518822
N         4.41227534799479    4.97756990642634   -3.47547352989610
N         2.56378130327270    3.63263948037361   -3.50464812549752
C         1.35985946171518    3.06613700824239   -2.86624848849302
C         0.17379674941093    4.06507447363920   -2.86293545119167
O        -0.49963044627232    3.74829485111591   -1.64449692565884
C         1.09790741787472    1.60505559907572   -3.29390928973656
C         1.82553820988933    0.54705100448199   -2.41576840806155
C         0.71204957276963   -0.23403830673067   -1.65134762959215
N        -0.17689787204347    0.69735573159173   -0.93946310902823
N         2.69809129780166    1.23255669161748   -1.44196656838548
H         3.41053703084168   -1.19327007852146   -1.24598460298360
H         4.44008952796583   -1.66085888035610   -2.62559810257595
H         2.72331180132224   -2.32458373366422   -2.49619322380217
H         2.72373483986986   -0.49053166793938   -4.16573902692001
H         5.50645238771757    2.79311379475556   -2.28423243868866
H         4.21889575451916    3.27030698207949   -1.04419479598602
H         5.36641184096580    5.07690773461430   -3.10675532944353
H         2.36313060808281    4.14165820434442   -4.36867637820741
H         1.63309022804114    3.05904682344185   -1.80236194807181
H        -0.47263370675519    3.84522716226536   -3.71875226130198
H         0.43317841218364    5.13093632430011   -2.83887340862793
H        -0.44598605646944    2.78757083402042   -1.48018349735080
H         1.48774494292693    1.46002888287467   -4.31030693142286
H         0.01660156079811    1.41218638007793   -3.29191571474777
H         1.36791116422226   -0.83133894169297   -1.01848042416758
H         0.11116049654964   -0.77275612652074   -2.39458120319404
H         0.29686675177530    0.89439045789275   -0.06132818827270
H        -1.02184818452635    0.16043738007287   -0.73754049643760
H         2.20714026572766    1.92064820141124   -0.87473588866758
