35
 energy: -49.724175156510 gnorm: 0.111863363800 xtb: 6.4.1 (79825abcba525fcdf90b791dcacef51065a7a4e7)
C         3.54999661216422   -1.39884424537397   -3.05700274539935
C         3.00995589239877    0.01835695379575   -3.18102380940374
N         4.07253551111592    1.04543430946216   -2.97628333280646
C         3.72718167035576    1.74189794696672   -1.93201442141832
C         4.19323966428601    3.12167136393086   -1.59117688709691
C         3.57221545823384    3.95707602843950   -2.71712102373230
N         4.18075255554778    4.98047079011734   -3.22897118007108
N         2.40978565796724    3.51470186054926   -3.32627774540139
C         1.20618644241111    2.96139838380781   -2.67580779161954
C        -0.06935858699088    3.78998028933685   -2.97758375823859
O         0.24765782314074    5.14104653475188   -2.64207435838873
C         0.86394476750102    1.47512504705283   -2.92102960198122
C         1.83883638537264    0.47545265047034   -2.23532330505614
C         1.11327403792107   -0.74282880902418   -1.58444225850928
N        -0.09410845480442   -0.25793936268279   -0.89770233565719
N         2.68956563296731    1.14962379089999   -1.23466852926977
H         3.90233398154539   -1.57434666487718   -2.03360890133028
H         4.46122267159266   -1.50621846591015   -3.65473171934320
H         2.81295184914527   -2.15748094340860   -3.32826469005759
H         2.85404790709406    0.17054277308475   -4.25770695498083
H         5.27096396532545    3.30379086926925   -1.58802051509171
H         3.76629344874628    3.42365481754862   -0.63279443015708
H         5.12973767881144    5.05395682295273   -2.84138298429485
H         2.39390807924463    3.91924917322329   -4.26542361892810
H         1.32881830410142    3.28051948122050   -1.63192894375430
H        -0.85500402496925    3.36612135941135   -2.34376008399455
H        -0.28713853689889    3.64753631790078   -4.04351102579570
H         1.02839985506151    5.37006438945754   -3.18138870422136
H         0.70050344127129    1.16459949536625   -3.96166931855158
H        -0.14817043088713    1.38983371310299   -2.50297088829316
H         1.86087767791387   -1.17903762068725   -0.92243467845440
H         0.80508088238793   -1.39539910914521   -2.41078945983047
H        -0.11689481598736   -0.53622373000660    0.08027268025580
H        -0.91086573823283   -0.67864106019588   -1.34369864543189
H         2.13314520397313    1.82346032573768   -0.71256305223322
