35
 energy: -49.719410146135 gnorm: 0.117749130419 xtb: 6.4.1 (79825abcba525fcdf90b791dcacef51065a7a4e7)
C         3.58789475590623   -1.48041474310239   -2.27653079383995
C         3.00896340435677   -0.29866573103484   -3.04059375251004
N         4.06936152209874    0.73592371340390   -3.21683936863303
C         3.89238738351645    1.58555369382232   -2.24645930231575
C         4.45273589199162    2.96653488012113   -2.11974914970068
C         3.58004511778977    3.68432438664467   -3.15633549128053
N         4.07501327695761    4.57267239970675   -3.95975888886216
N         2.20848513800249    3.82917557511039   -3.03043391798030
C         1.14438591552040    2.89151571851214   -2.62251993870258
C        -0.24595523269632    3.49733285037650   -2.94589111430171
O        -0.53581176652464    4.71908620509238   -2.26637078593693
C         1.24854840238086    1.52341236746029   -3.33224871670046
C         1.88625758287489    0.53232337161345   -2.31685652933022
C         0.90073764786419   -0.25241360373407   -1.39640289978876
N         0.42229472980191    0.74553643475711   -0.42702677536688
N         2.82554439004354    1.24984540449056   -1.43228919190430
H         3.88503171161907   -1.21192244819960   -1.25579615800447
H         4.46909315754174   -1.79512103713894   -2.84538174797204
H         2.77447588608230   -2.20735870358303   -2.22909780636343
H         2.68853073368543   -0.60264547440118   -4.04639375091117
H         5.49964114061611    3.03338849064389   -2.42664837397393
H         4.19904864699650    3.28637232149692   -1.10716789419018
H         5.10114099930764    4.61166537047505   -3.91805740789570
H         1.90132243260254    4.30644263424170   -3.88118231591322
H         1.17322336517889    2.92464182179549   -1.52496313074783
H        -1.05196587399613    2.76868410565525   -2.81155780043314
H        -0.33387154507293    3.60262188908632   -4.03451605735583
H         0.20049827171023    5.35759744294902   -2.21143278937981
H         1.99564580612176    1.59979935644220   -4.13354810429389
H         0.33901255453832    1.07718590260117   -3.75657328516723
H         1.36472460353943   -1.06245497013256   -0.83427084959048
H         0.13606031696641   -0.76020813628011   -1.99731386818302
H        -0.31540967290655    1.37666707101863   -0.73011565634649
H         0.17505345331455    0.27728228820963    0.44624574251485
H         2.51176048279528    1.78829022274789   -0.62738527574859
