35
 energy: -49.719710188685 gnorm: 0.127445718248 xtb: 6.4.1 (79825abcba525fcdf90b791dcacef51065a7a4e7)
C         3.61601565728388   -1.32646204117656   -2.93292362614678
C         3.02080258960714    0.05460196897344   -3.16501857594354
N         4.05035491087970    1.08127700882223   -2.83059010463564
C         3.65602004971112    1.66261921392409   -1.73451998262790
C         4.04027808219426    3.07432609708644   -1.42373962511338
C         3.66634752982376    3.77344248754130   -2.73626941253157
N         4.45478253149453    4.57253804781776   -3.38392777763838
N         2.43278054173687    3.51729613918506   -3.31134453263982
C         1.16645663871809    2.95164441424828   -2.80699457518247
C        -0.03825049440427    3.81739101890999   -3.25843158228425
O         0.02112596614752    5.17593075302935   -2.82335666916256
C         0.94698029917059    1.46141818090455   -3.14952553701615
C         1.78834438057402    0.47963455091067   -2.28456362418068
C         0.93502249447465   -0.66870138791622   -1.66209842242598
N         0.06094949967740   -0.06176568103217   -0.64616169251910
N         2.52225681464936    1.10795467902003   -1.16825572358412
H         4.51625799561717   -1.44587157927569   -3.54740127386575
H         2.91619293857060   -2.13952918129651   -3.15272369657434
H         3.94599869442831   -1.46650012373403   -1.90149345345536
H         2.89645631526344    0.11069081579712   -4.25502154682375
H         5.12950888243082    3.04104242370080   -1.33926702052492
H         3.42164474082833    3.57049485621947   -0.67335081182797
H         5.39362080537013    4.76807605996276   -3.01440762274820
H         2.46262084302978    3.93203962825127   -4.24569082654626
H         1.25448810884671    3.20124657560751   -1.74092275716360
H        -0.94996448888485    3.42019428630452   -2.80056703465694
H        -0.06287433664949    3.69401633800424   -4.34842776792188
H         0.83853518569122    5.65380360164653   -3.06073183038227
H         0.96945460089361    1.10949328007492   -4.18958033139724
H        -0.00997107436506    1.36936187768415   -2.61830561626518
H         1.53747160731916   -1.47005134014742   -1.23508942182683
H         0.30362862094835   -1.07518603911225   -2.46196886471190
H         0.61117446195629    0.10727924998277    0.19233269853766
H        -0.51342555914024   -0.87205521911534   -0.40842392407795
H         1.97753807781120    1.73761250951144   -0.58253734770405
