35
 energy: -49.718357793006 gnorm: 0.117791585583 xtb: 6.4.1 (79825abcba525fcdf90b791dcacef51065a7a4e7)
C         3.39144637012035   -1.23859486427132   -2.75940562564345
C         2.69653893268575    0.10153417337593   -2.95082729049458
N         3.83069611685879    1.07042204600469   -2.97956380281234
C         3.75720801669101    1.77438017679619   -1.88691981286514
C         4.47151330459015    3.08838373816937   -1.90474006031274
C         3.91882693290673    3.68435583392798   -3.20500051821555
N         4.59045446159228    4.02106704034880   -4.26102459973161
N         2.55607381205320    3.80959321812970   -3.41767256135602
C         1.44412863395368    3.30023790587634   -2.59181417951915
C         0.18864360292819    4.16310974882696   -2.88136790014282
O        -0.64885967104138    4.37489111209589   -1.74462567822441
C         0.96417613071062    1.83621575692918   -2.70386893789919
C         1.73449567430773    0.75578325965683   -1.89194216089950
C         0.94645352973494   -0.31860990502380   -1.08017529083400
N        -0.13282751780224   -0.82286563464302   -1.94352953831666
N         2.73917304365655    1.40457711169311   -1.02635169459611
H         3.41084569173252   -1.59468256198672   -1.72253393886913
H         4.42578631386653   -1.18597860202558   -3.11509437835540
H         2.91847727567696   -1.99155905711792   -3.39319804126349
H         2.33851175625265    0.11075696950185   -3.98930978910088
H         5.55599891272515    3.05586178350103   -2.03702927526803
H         4.24098292862231    3.64911655785239   -0.99677064486426
H         5.57152179348524    4.13824444355128   -3.97822799358037
H         2.37914405649979    4.14865255736785   -4.36616622122687
H         1.83895788545920    3.50559012324543   -1.58757306218292
H        -0.37698697553636    3.71541590929287   -3.70493324045982
H         0.53504114061911    5.17153759302847   -3.14021411241102
H        -0.96963913674562    3.51160439105965   -1.42104596261877
H         0.94464762934268    1.55558800568636   -3.76544178421461
H        -0.09903000403576    1.81040909463902   -2.42936648339496
H         0.36248847025499    0.11548169746217   -0.26900783260471
H         1.77301319852767   -0.97108082735129   -0.77234169561745
H        -0.56049054305236   -1.66836460989402   -1.57389139442013
H         0.27578265463131   -1.02049835010439   -2.85839243673302
H         2.48767400045879    1.97200641201393   -0.21949006052915
