35
 energy: -49.721013856076 gnorm: 0.123760103267 xtb: 6.4.1 (79825abcba525fcdf90b791dcacef51065a7a4e7)
C         3.69979328726428   -1.46403210001590   -2.65628631630495
C         3.12010380030354   -0.13819343484841   -3.12702655688261
N         4.12151462507912    0.95566078990405   -2.96411154092286
C         3.63644931541692    1.72361435310806   -2.03148760305635
C         4.16031842744587    3.08582971009589   -1.70424849541302
C         3.63805462316190    3.92871049994746   -2.87391283989531
N         4.30020980208767    4.80644717398461   -3.56004230496678
N         2.28994424291702    3.80534708925225   -3.16612798018886
C         1.22009522294644    2.97336437378716   -2.58206053947888
C        -0.07935361359012    3.76131155864423   -2.89061161834029
O         0.04190976811218    5.13209919613590   -2.51024022770541
C         1.07068592452510    1.49785658365395   -3.01429325151421
C         1.93366513196773    0.43884526490557   -2.27017392608453
C         0.97681604773519   -0.62429279227654   -1.64689722010323
N        -0.24639113289150   -0.01584672342920   -1.10094892072067
N         2.75683506652063    1.04654018126278   -1.20591122497648
H         3.94286054956971   -1.50274222239633   -1.58778385421169
H         4.58327046881999   -1.53548064576426   -3.29933006237421
H         3.04018566458887   -2.29867682192050   -2.90252530238859
H         2.87099273045894   -0.21168860733383   -4.19438617396618
H         5.22934454124155    2.95878559562129   -1.89321969023957
H         3.84446475607425    3.50837132928777   -0.74838812961485
H         5.26685136398250    4.88016093503437   -3.21891485608426
H         1.95313494327221    4.09964442164799   -4.08583128243775
H         1.32970371710055    3.04565160308778   -1.49150086248228
H        -0.98859126755381    3.31343744002282   -2.47669949083874
H        -0.28935716334834    3.64639092724264   -3.96141089062421
H         0.32259366947015    5.62124920049311   -3.30699369098548
H         1.33906788967329    1.50590485929300   -4.07917660206106
H         0.00247049983743    1.26184992524940   -2.91610198860691
H         1.53559903211703   -1.23828787440320   -0.94105377323378
H         0.62033320773865   -1.38363553885293   -2.35400349292964
H         0.04072239553643    0.46400697329883   -0.25141799657744
H        -0.91961421333027   -0.76141996907318   -0.91686658861720
H         2.24220165810517    1.61686580864761   -0.53797812285286
