35
 energy: -49.720889334603 gnorm: 0.112786467024 xtb: 6.4.1 (79825abcba525fcdf90b791dcacef51065a7a4e7)
C         3.74216232592396   -1.28577497851755   -2.63932147654493
C         3.02331306049230   -0.05356142939876   -3.16884008609661
N         4.04994807992260    1.01723627318832   -3.00979658129100
C         3.61821938198724    1.72334705944366   -2.00488547029422
C         3.99583412951204    3.09554188929854   -1.54483824615352
C         3.61115084257553    3.80647007938960   -2.84788164427959
N         4.32175254061605    4.55673202278699   -3.63005621601452
N         2.32246595093804    3.59434214769926   -3.30864498367553
C         1.17617176451550    2.94168112615368   -2.64686691271867
C        -0.04875797542421    3.81020555249552   -3.03396417956149
O         0.17026164335978    5.21976562401095   -2.97382461011211
C         0.92498795151402    1.46470606572421   -3.02332794720274
C         1.82572998996949    0.43991941172292   -2.27604767894475
C         0.98458811263948   -0.70821138208832   -1.63685084258004
N         0.03071215133034   -0.14391394826865   -0.66928118755162
N         2.61989327915859    1.13885001897869   -1.24631099277690
H         4.74683419707697   -1.31176407782282   -3.07776951471447
H         3.25855088134578   -2.26566167828401   -2.71062438909200
H         3.87614157433655   -1.19741270512165   -1.55923382338339
H         2.76124546806339   -0.12200607122487   -4.23342936289710
H         5.04690781198206    3.03514984662025   -1.25113080385052
H         3.31806306670670    3.46589908919550   -0.77319328343786
H         5.29529900346057    4.77690117462739   -3.38524937485973
H         2.16863946602533    4.08309131472224   -4.19372535414514
H         1.37208897045758    3.10319700184986   -1.57818129078371
H        -0.76066005512496    3.64514603341781   -2.21874740769331
H        -0.41272135580881    3.41009658544665   -3.98861741629130
H         0.54181920103836    5.62310368962517   -3.78137067382293
H         1.10769526331031    1.40493517459037   -4.10458448108202
H        -0.10606456278243    1.19007321518641   -2.76268952489216
H         1.71720164428529   -1.32050991669968   -1.11167345791953
H         0.37527957723982   -1.29498545045314   -2.33550669990589
H         0.58159198155524    0.36802662826689    0.01544123733691
H        -0.41124169928975   -0.93719618266813   -0.20197488819126
H         2.01639831890680    1.74091554041427   -0.68992583535238
