35
 energy: -49.723396928846 gnorm: 0.110938762459 xtb: 6.4.1 (79825abcba525fcdf90b791dcacef51065a7a4e7)
C         3.65414305575644   -1.37415195890233   -2.41703341761854
C         3.07627062997334   -0.13928592006398   -3.09279504916246
N         4.07255446439911    0.97072641255515   -3.05854372076031
C         3.77926418640309    1.61934812401304   -1.96854413254356
C         4.30645310427850    2.98525571331757   -1.66272845579794
C         3.64716625676103    3.92072373213516   -2.68329820029916
N         4.31844734763188    4.67147090961752   -3.49902191065523
N         2.33746886294336    3.77788472046575   -3.11026373343018
C         1.20589019226259    2.91707029248656   -2.71474485675658
C        -0.05900731048884    3.66576592735756   -3.20883085570565
O        -0.23534260540809    4.86192460738485   -2.44951785473774
C         1.25238814929923    1.47537248642106   -3.26757114280033
C         1.88075674026002    0.46357033104333   -2.26689086912367
C         0.81143704693674   -0.51946202279274   -1.69724244159081
N        -0.30383565350739    0.26372757652592   -1.14291147139881
N         2.71316493043524    1.12199623848340   -1.24067019862802
H         4.45652062140796   -1.94742492330732   -2.89643515946445
H         2.83809094264087   -2.06299259839716   -2.17475340263176
H         4.01664432930226   -1.03165747618862   -1.44562308864630
H         2.88682946517884   -0.49802370985605   -4.11364452975182
H         5.37407247338541    3.01968293429087   -1.89439802453243
H         3.96377840716005    3.39692580747626   -0.71137374709242
H         5.33231007384814    4.54609288368294   -3.38694922561115
H         2.16466343870248    4.19368197420501   -4.02849927866599
H         1.15955234198816    2.89807876883873   -1.61745182507002
H        -0.96425324253289    3.06129982135261   -3.09145062841799
H         0.13771000571228    3.96456989050851   -4.24610507964661
H         0.51002698708884    5.46341531090342   -2.63793325956597
H         1.87838065890987    1.38880989762704   -4.16574178452433
H         0.23422947720402    1.13707749415076   -3.50280355969965
H         1.21883360306998   -1.16950645626422   -0.92334733568763
H         0.40458861194775   -1.17936918874135   -2.47356555992916
H        -0.06895324432115    0.70818925839817   -0.25878444214458
H        -1.06239957444170   -0.33606040882428   -0.81453632870471
H         2.25357920682156    1.68642711367027   -0.52901562918214
