35
 energy: -49.715599031506 gnorm: 0.116258405155 xtb: 6.4.1 (79825abcba525fcdf90b791dcacef51065a7a4e7)
C         3.52187337094751   -1.48774220497539   -2.95114118093249
C         3.03256951041429   -0.05470670033448   -3.10105910098443
N         4.03247836611948    1.03718669021214   -2.91712137513370
C         3.66306266546859    1.67090727328094   -1.84159421768292
C         4.19511197763117    3.04739995705111   -1.59798321270391
C         3.60725579293047    3.96517035386878   -2.67661417431762
N         4.15778593796367    4.95947744253776   -3.29944220738500
N         2.43466831248718    3.54672249230598   -3.28320283477537
C         1.20672952859424    2.93977075740705   -2.73394618009607
C         0.04683567661809    3.81610828501899   -3.27367814921183
O         0.15656416092338    5.17823048380408   -2.86012196075319
C         1.06824300989032    1.42985027960315   -3.02929872189964
C         1.86534981211683    0.41732829440674   -2.15787941212929
C         0.98716405559546   -0.68668600997118   -1.49136706374741
N        -0.26669038578758   -0.09842970049717   -0.99507529481994
N         2.65841124295031    1.07497288272149   -1.10047028132636
H         4.35814940345126   -1.76637671660224   -3.60327834113253
H         2.64445045329715   -2.12482398426454   -3.10410492088005
H         3.97137019259738   -1.69957838959552   -1.97881114680132
H         2.74391416261794    0.17189342666688   -4.13645510636691
H         5.26648203481269    2.95565369969989   -1.79398311158743
H         4.03972906669506    3.40803727560108   -0.57927282636698
H         5.05087842331745    5.23699265041430   -2.87333343768980
H         2.35523271942564    3.87770874720817   -4.24759055049817
H         1.08027755837058    3.13546803848517   -1.66050668949374
H        -0.91752894815330    3.39820531454489   -2.96710749429526
H         0.03950404077012    3.72646353824318   -4.36721799268952
H         1.05544404489180    5.49038715709346   -2.64231373581479
H         1.33246477316306    1.24423888907448   -4.07896793937725
H        -0.00543421338416    1.28901851952715   -2.84542785134419
H         1.61140549564596   -1.12163811868060   -0.71124999469842
H         0.61478009127917   -1.43081350349791   -2.20640912659305
H        -0.01533557013234    0.33174206172272   -0.10841326760629
H        -0.86562875303131   -0.92557489439158   -1.00501251401650
H         2.31336424282953    1.64838480999942   -0.33340131683838
