35
 energy: -49.720256859453 gnorm: 0.124668828596 xtb: 6.4.1 (79825abcba525fcdf90b791dcacef51065a7a4e7)
C         3.46700523616609   -1.46333913500167   -3.12448948256526
C         3.07130611508681    0.00532891042333   -3.16831647279439
N         4.15236975774847    1.01155579137634   -2.95691436034891
C         3.79126117634976    1.64355311791598   -1.87755880965648
C         4.19340625080619    3.02870526009585   -1.48159434780357
C         3.62517282343855    3.81075362685114   -2.67190243805895
N         4.12948005655418    4.92101358095652   -3.11081231926286
N         2.36918737271741    3.57816306941316   -3.20707721983450
C         1.13293426964130    3.01642797585409   -2.62911619850167
C        -0.02614766145752    3.85358454269207   -3.22939095801746
O         0.18765960512513    5.26271582880764   -3.14523975175224
C         0.94134716641055    1.50392481093384   -2.87791347181318
C         1.87015010412455    0.42855329566614   -2.24478404125768
C         1.09820931645732   -0.74847081533713   -1.57171777820552
N        -0.13989295938061   -0.24973799624336   -0.95295263871869
N         2.63906556291029    1.20358717630581   -1.25097900976634
H         3.89290233039481   -1.77848920479528   -2.16450522517533
H         4.23215230591349   -1.53035304010714   -3.90500289045161
H         2.61677702517108   -2.11034172888345   -3.34998293125950
H         2.76065842096301    0.18880469429219   -4.20588529774613
H         5.27857291372980    3.15734327506698   -1.50467523805669
H         3.77410020528188    3.27218399431872   -0.50339469686188
H         5.07012613015591    5.23568826392057   -2.84180976979840
H         2.07921300212375    4.17874292721100   -3.98239928527744
H         1.27441849816891    3.11829304140369   -1.54460450591621
H        -0.95544935957861    3.58718454521241   -2.71552620056159
H        -0.11709259200325    3.61141044717787   -4.29569300507359
H         0.92242439678198    5.52258864452930   -2.55748633455978
H         0.95915491822716    1.29554560837446   -3.95602812198468
H        -0.05435460687611    1.26787771465948   -2.47880868778581
H         1.72004626207908   -1.26995144608732   -0.84451758806640
H         0.88033807582317   -1.45328652754282   -2.38378159350588
H         0.10627551993368    0.44673689528084   -0.25386727668529
H        -0.53319848811431   -1.00587065306407   -0.39030776745439
H         2.36449122984098    1.51379712697017   -0.32112300039077
