35
 energy: -49.717865975512 gnorm: 0.119008875817 xtb: 6.4.1 (79825abcba525fcdf90b791dcacef51065a7a4e7)
C         3.45975816433774   -1.44645631129769   -2.74805604555419
C         3.08534050329236   -0.03470654760410   -3.17497346693868
N         4.13460954301269    0.99604836709347   -2.92505188177499
C         3.72892148277860    1.69601414608231   -1.90510407428640
C         4.21879283659279    3.06736884429767   -1.56368456087478
C         3.66379060634849    3.89058619618445   -2.73227682988395
N         4.26302086782032    4.83130731577386   -3.39228566336145
N         2.40885100840936    3.54770981236903   -3.20722126330399
C         1.20343025798651    2.93693660518923   -2.61407383911775
C        -0.06309384022481    3.69065170585237   -3.09621706118133
O         0.03185578055610    5.07736722112653   -2.76994936936586
C         0.97947364978096    1.46144942595010   -3.01288779717498
C         1.90815476594295    0.46642938309478   -2.25960284848681
C         0.99289655872028   -0.67391420195473   -1.71534600635038
N        -0.08907378609976    0.04944844015982   -1.02935135960921
N         2.73461959593917    1.05559321844660   -1.18750265840985
H         4.43161297087854   -1.66252830770002   -3.20750007365567
H         2.59345113827977   -2.00845320312775   -3.11249221116777
H         3.55241230343253   -1.47201192391112   -1.66034753986437
H         2.81241589621327   -0.06627905592788   -4.23856632290607
H         5.29138741272012    3.20043298308765   -1.72647877030607
H         3.93407179129737    3.39650820309608   -0.56239779075730
H         5.15862110039188    5.20137615203690   -3.05001846584226
H         2.29748795805284    3.85926710039950   -4.17491745409510
H         1.40795389207945    3.07540772408559   -1.54376747188773
H        -0.91932275598226    3.33459802804854   -2.51421584342350
H        -0.20339886266171    3.34026027514168   -4.12648871281465
H         0.47828703115905    5.57053678006903   -3.48433734837155
H         1.19076259426018    1.36747989467991   -4.08647846624605
H        -0.06578332355890    1.23344942581158   -2.76413342311493
H         1.39515263343542   -1.38836223632285   -0.99757346806152
H         0.41989625139941   -1.16351517627707   -2.51261775891780
H         0.35412885525205    0.64993551740073   -0.33842210776298
H        -0.60043550668096   -0.68478876428212   -0.53701000634032
H         2.16933121091989    1.61409045291350   -0.55127677574443
