35
 energy: -49.725699303865 gnorm: 0.114996712328 xtb: 6.4.1 (79825abcba525fcdf90b791dcacef51065a7a4e7)
C         3.61029199542338   -1.47820081353127   -2.50399222016837
C         3.05897894624657   -0.21002247867924   -3.13902139980602
N         4.12181352084055    0.83548206794837   -3.08258651623336
C         3.79821618761909    1.56374147792668   -2.05314424288771
C         4.30092263890901    2.94942167204540   -1.79950763388442
C         3.54632059989906    3.92593807077702   -2.70962502777204
N         3.98410651647814    5.10303163482320   -3.02968602953126
N         2.51617540056240    3.45969339816843   -3.50926659238247
C         1.29112347027800    2.93972183529030   -2.87147012644097
C         0.06465293886204    3.79528565120303   -3.28185093538697
O        -0.10945346577537    4.93498703070458   -2.43970268396263
C         1.08063751939952    1.43827842278423   -3.16750199450498
C         1.89003286918101    0.42968957552504   -2.30287528303736
C         0.88642488770359   -0.48797464593940   -1.53804856770950
N        -0.28825923614664    0.13285871334524   -0.90623760178885
N         2.69192037148841    1.18028456190146   -1.31639643731727
H         4.56093735922457   -1.71531210706338   -2.99626176529464
H         2.99045447105916   -2.30841688710275   -2.85851273201820
H         3.66361281454595   -1.53243657024397   -1.41469747967473
H         2.76061417380971   -0.35401973408321   -4.18637886361056
H         5.31416902450052    3.07850126104722   -2.18852866095055
H         4.25176609164524    3.18622800469207   -0.73485727872463
H         4.86830387451127    5.40478396021562   -2.60150601223787
H         2.21319826233686    4.12852188226373   -4.22115065583175
H         1.46565657878987    3.03896937535218   -1.79154049483143
H        -0.88357844172747    3.26001498258529   -3.16796437756135
H         0.17322223990308    4.18300035894913   -4.30254155192216
H         0.77333544524071    5.35158118393799   -2.44026051138993
H         1.15897730704187    1.24808065346846   -4.24627809554425
H         0.03512120081610    1.14307887945603   -3.00570669145883
H         1.46863986740562   -0.97674941402843   -0.75730002011146
H         0.52731916384543   -1.27384518144373   -2.21416340401133
H         0.09472540122740    0.55352285851079   -0.06317118635290
H        -1.00230752717284   -0.54771475101490   -0.64175720993720
H         2.27039192453842    1.85532320940793   -0.68166022197574
