35
 energy: -49.717047280530 gnorm: 0.118136282762 xtb: 6.4.1 (79825abcba525fcdf90b791dcacef51065a7a4e7)
C         3.57416570355669   -1.31108095224653   -2.32505731187416
C         3.07757124979517   -0.08350794572771   -3.07468582467819
N         4.06610331122690    1.03336781822810   -3.11039139110928
C         3.81063065101941    1.79199359011557   -2.08372247007684
C         4.26555815750833    3.21427451351310   -1.99820718595844
C         3.69372994704984    3.76316058705586   -3.31086050526397
N         4.46850550080710    4.22315339743689   -4.24240452050103
N         2.36627683267281    3.63535746726066   -3.68441693173153
C         1.30734683558695    3.02357940383260   -2.85840131024756
C         0.04632514547974    3.90706191344262   -3.04256091857778
O        -0.53238506160382    3.95668304477050   -1.73830703254791
C         1.07939124561046    1.51296680691607   -3.08721854288429
C         1.91555800516241    0.53480386184395   -2.21316244908945
C         0.93787041745531   -0.35138864641255   -1.38064437580655
N         0.15234390595016    0.42243542984261   -0.40665959070961
N         2.82641456932372    1.23566880764135   -1.28650956244946
H         3.62270830682898   -1.12790687287403   -1.24507187011328
H         4.58812461343390   -1.54780584173415   -2.66416015228163
H         2.85224146994160   -2.13033134660496   -2.32642035955110
H         2.89389575477520   -0.34661677372906   -4.12528159079987
H         5.31083761115566    3.38242007354984   -1.72657316093650
H         3.63402391184848    3.54236682055386   -1.17026157237562
H         5.41823007444283    4.32124628675446   -3.86214331361016
H         2.14791630124858    3.71241047432619   -4.68055301019064
H         1.53095353991528    3.23327407880656   -1.80360841087492
H        -0.63825557421425    3.45478522991162   -3.76742133768504
H         0.40770536029090    4.90262518638183   -3.32922699089325
H        -1.31558741233297    4.53923322888387   -1.72847742880221
H         1.39980480766693    1.30433852401007   -4.11672307965675
H         0.00283907573165    1.30329363218278   -3.02807940349684
H         1.34949709476590   -1.11465906314609   -0.72077689388524
H         0.34536839128685   -0.83695295852655   -2.16604195068543
H        -0.27315687816394    1.23367911112239   -0.84850719902791
H        -0.60042366999771   -0.16933686301337   -0.05149538420604
H         2.28869598349154    1.74572931757435   -0.58869119200019
