35
 energy: -49.719459084592 gnorm: 0.125012317098 xtb: 6.4.1 (79825abcba525fcdf90b791dcacef51065a7a4e7)
C         3.44181152582631   -1.42314407575567   -2.49095282476381
C         2.93779823434781   -0.08480513670951   -3.01086045286618
N         4.06487126696814    0.89163020243857   -2.96435856779811
C         3.79788889394797    1.75119263706173   -2.02377297170939
C         4.41602311518452    3.11303508424830   -2.00255544918557
C         3.81666801170435    3.76799418684614   -3.25280511676975
N         4.53802665411884    4.33448631127109   -4.16843233282423
N         2.45843775058153    3.76178478780721   -3.52332656602914
C         1.41039587622780    3.13661466086048   -2.69346058998684
C         0.08765073339088    3.93137699311501   -2.84620207883747
O        -0.81562375732836    3.58782806630910   -1.79524285663112
C         1.25231958207558    1.67833432422858   -3.17792103666226
C         1.89885285334885    0.71503753963004   -2.14157853807480
C         0.81620933892469   -0.21969901847933   -1.51832322891301
N        -0.26138056784243    0.60745896998278   -0.95342355546946
N         2.79580489734913    1.35253298440662   -1.15738671354268
H         3.96257212846781   -1.14774244089005   -1.56616094472166
H         4.25361032257543   -1.94063490553202   -3.01280341011961
H         2.67881974422411   -2.18455853471148   -2.31648440584729
H         2.56456728899524   -0.12802617671825   -4.04311286013014
H         5.48995575795456    3.00201105290830   -2.17287716607151
H         4.08414975149499    3.66150945974421   -1.11880778482967
H         5.55318399526902    4.28119865815746   -4.01739073718668
H         2.16741723536242    4.09958311599831   -4.44370960697125
H         1.64963305651064    3.16370840678685   -1.62173702703080
H        -0.26125665293096    3.75242439108261   -3.86838953621915
H         0.19474215769472    5.02140024967231   -2.78062727093223
H        -1.01342303148370    2.63216378295905   -1.77406540638223
H         1.72764684803202    1.42637106333886   -4.13533877644190
H         0.19082074997029    1.39684179495209   -3.19809705607905
H         1.37765967086435   -0.74224432047367   -0.74426683332925
H         0.39967623076384   -0.83980411017662   -2.32184706909650
H         0.01333555361990    0.98865581341479   -0.05141659345337
H        -0.97686869353271   -0.05046828948814   -0.64004909562783
H         2.53329753555450    1.99821592550119   -0.41547236058430
