35
 energy: -49.727549554690 gnorm: 0.105597406006 xtb: 6.4.1 (79825abcba525fcdf90b791dcacef51065a7a4e7)
C         3.52710572930189   -1.46277298462879   -2.50811332472386
C         2.97496264601708   -0.16070048087235   -3.06956647322267
N         4.09685232860033    0.82278493198971   -3.07097276580496
C         3.82515416011536    1.64089531199463   -2.09541962991327
C         4.31767859284249    3.04672956738955   -1.96049499259951
C         3.69587129272383    3.74554928341342   -3.17553773359148
N         4.32789691893508    4.51889900835508   -4.00144245378847
N         2.41703183556052    3.37614633304049   -3.55779540707485
C         1.20009248394981    3.08492826902497   -2.77539039810551
C        -0.01419538949132    3.88460669772063   -3.31451113870524
O        -0.76509255554767    4.51310270095904   -2.27547689154694
C         0.93077016314821    1.56542725919773   -2.84505868704588
C         1.89424242224860    0.54661850989847   -2.17148494968639
C         1.06187263274665   -0.44395109435099   -1.29957386579471
N         0.12950941752514    0.34119968199232   -0.47571764838613
N         2.78703399010113    1.28232997476082   -1.25431059761130
H         3.88878532340537   -1.36815399554842   -1.47733071224198
H         4.37712943914034   -1.76303403008818   -3.12976039076015
H         2.75037623084419   -2.23025436935437   -2.51147096125040
H         2.68273831084333   -0.15209871258379   -4.12845520911531
H         5.38123057313140    3.21979566730015   -2.14372286636162
H         4.04336597506705    3.59823120304783   -1.05906694813489
H         5.28113768130829    4.79841235057184   -3.73800004647113
H         2.25903230863646    3.60799334658692   -4.54125292942253
H         1.29804134013046    3.35549675180091   -1.71531559614743
H        -0.62742123894617    3.13835607872556   -3.82996400824258
H         0.30059760305255    4.68889964821205   -3.99122196440570
H        -0.21219613625328    5.24402568233305   -1.93943462508903
H         1.01297452468504    1.35735013102226   -3.92024079235448
H        -0.08752787056730    1.40982668711813   -2.46389935816835
H         1.82005996979568   -0.95914096906581   -0.71035852639554
H         0.48683618727807   -1.10612911591412   -1.95876583971618
H        -0.45563275248311   -0.21377406982432    0.14396720081958
H         0.61495529667197    0.94807640371954    0.18688179864733
H         2.39112191550428    1.99793451983783   -0.64816107272119
