35
 energy: -49.725283978235 gnorm: 0.119782742973 xtb: 6.4.1 (79825abcba525fcdf90b791dcacef51065a7a4e7)
C         3.68781915782894   -1.47488474445331   -2.50848528264385
C         3.01698773348434   -0.23121230217324   -3.07306342183459
N         4.05737352877681    0.83522451796096   -3.15175193840073
C         3.83484146552691    1.57923908585460   -2.10688343730806
C         4.36645696176673    2.96090003654136   -1.89345229638202
C         3.54229003672217    3.94884843473966   -2.72773580758577
N         3.98384081905068    5.11725470952343   -3.07342999148225
N         2.38738351859891    3.56200804396441   -3.38694386627405
C         1.20372778418009    2.94719087005142   -2.75538555383798
C         0.02230607206191    3.73827044966958   -3.37431014825466
O        -0.21511081871088    5.05384366545225   -2.87296567550117
C         0.99082624695966    1.44391970154277   -3.04020168373121
C         1.84775002284826    0.41791729769191   -2.24461867155775
C         0.95561259261481   -0.58250780116388   -1.44615957532228
N        -0.08728056107117    0.09355206930620   -0.65887381261358
N         2.77809380005311    1.12205884260985   -1.34007345341976
H         4.65892066828956   -1.51251919709242   -3.01624820401378
H         3.13604998021523   -2.37947862355174   -2.78489578121940
H         3.81713220907853   -1.34591444865436   -1.43192016147422
H         2.59683978315140   -0.56058726621435   -4.03311666863931
H         5.43893133431748    2.92485992372515   -2.10121886118717
H         4.30430841345814    3.22184855113719   -0.83514354638750
H         4.89499560104046    5.36799159640046   -2.66954196834722
H         2.28616255162585    4.19555049117156   -4.18336327405001
H         1.26094832287423    3.12205754967950   -1.67246943330780
H        -0.94220611726139    3.25692412472008   -3.18286944476007
H         0.07801846091037    3.78303682424701   -4.46921262020879
H         0.62249777317987    5.52840716389276   -3.03442339025438
H         0.87174822444471    1.37995832522014   -4.13006385079582
H        -0.02208923656410    1.30788966099033   -2.63780520264913
H         1.50015289072385   -1.31964062669701   -0.85662212988176
H         0.50661400205715   -1.16312331403866   -2.26161441531195
H         0.36470147143406    0.59175092806616    0.10395426386055
H        -0.67833486131051   -0.63527483032160   -0.25580899526195
H         2.28094389393271    1.77322798987076   -0.73585976123731
