35
 energy: -49.723215730122 gnorm: 0.112425760007 xtb: 6.4.1 (79825abcba525fcdf90b791dcacef51065a7a4e7)
C         3.66572909521039   -1.26291126060985   -2.51051903075871
C         3.12731770068198    0.03467662106656   -3.09520981412872
N         4.05648510565549    1.17209148516725   -2.83287916434606
C         3.54474087483232    1.78123719914805   -1.80239976971153
C         4.03362641471085    3.17902864182310   -1.59186480158338
C         3.66992930381574    3.75710881829404   -2.96477045321130
N         4.42910038284066    4.46368653221796   -3.74197829137614
N         2.38472557730912    3.52448390855781   -3.42536452476760
C         1.26063120368679    2.91886208604933   -2.68540435789602
C         0.08347992227122    3.84541846458284   -3.08595398011623
O         0.13237091691601    5.13280718693523   -2.47057936929943
C         0.92273940275797    1.47255011926177   -3.11000109710823
C         1.81259346063212    0.45481952469464   -2.34036748524776
C         0.97463035158526   -0.71485456363524   -1.73706248105521
N        -0.16836679574706   -0.17111733965620   -0.98712293040782
N         2.48293398393022    1.12353066444396   -1.20766012834636
H         4.58871530498928   -1.53457302633867   -3.03642208627976
H         3.01935922022927   -2.13305191864329   -2.66609313191083
H         3.89503207493086   -1.19235687794701   -1.44525385742958
H         2.93487490089030   -0.03197809508710   -4.17467141121735
H         5.12070626306201    3.15889371964129   -1.47997586817741
H         3.61239716720736    3.63715519642985   -0.69483638621480
H         5.36759363813363    4.69311425436421   -3.39156297498398
H         2.10730795033063    4.19088633194358   -4.14983182769562
H         1.30874461514541    2.96343215309966   -1.58892886693405
H        -0.84537019198762    3.35419426508981   -2.77844161790154
H        -0.03023467356128    3.92295544329435   -4.17452016657934
H         0.94823218700885    5.54881022372650   -2.80848338433514
H         0.99403517295168    1.47028385465700   -4.20589433478579
H        -0.12902584539073    1.25899211552667   -2.87631816044166
H         1.62727472921607   -1.32150797468929   -1.10979035595197
H         0.65871598334732   -1.40844991796611   -2.52624199441658
H         0.31176021996761   -0.08722446359215   -0.09446589825075
H        -0.90111531805892   -0.84856128013368   -0.76999532924997
H         1.88881468131671    1.58543177918596   -0.52215075372569
