35
 energy: -49.721382439322 gnorm: 0.111226196089 xtb: 6.4.1 (79825abcba525fcdf90b791dcacef51065a7a4e7)
C         3.64993127844255   -1.37161714743587   -2.57518239857240
C         3.19370767598470   -0.00958833491157   -3.07739944387188
N         4.17174097131463    1.09060785880132   -2.83470378402321
C         3.67442473126140    1.75410893960169   -1.83107473221828
C         4.07645900853280    3.17295296553848   -1.58126484705764
C         3.57465892202574    3.85438744690807   -2.86000090196532
N         4.23542063855272    4.42117238607820   -3.82010172662951
N         2.24256228862623    3.71935495606837   -3.21397071730133
C         1.16406713942108    2.98642961463274   -2.52290224546950
C        -0.05014542855118    3.84001943549248   -2.97201702658953
O         0.18105207486329    5.19776452792845   -2.59582301498970
C         1.11148423455427    1.52939803094136   -3.03335841937661
C         1.93470757751477    0.46014971693980   -2.25943142971031
C         1.01235343399966   -0.64689395352553   -1.66108902956771
N        -0.26574227229153   -0.17596765006966   -1.10502993107695
N         2.65817806538374    1.10981512869126   -1.14853890207173
H         4.55342133329352   -1.54242268793966   -3.17251720328703
H         2.91888763758125   -2.17065518607060   -2.73721782927939
H         3.85549556786644   -1.39785590967281   -1.50308048657108
H         3.00839484446030   -0.11474070784938   -4.15504341550799
H         5.16297804100202    3.25942862687897   -1.49962247137681
H         3.64528660727697    3.67549319963502   -0.71321089879234
H         5.24216494234042    4.46851227070704   -3.61904848336721
H         2.08923024882276    3.69177592456652   -4.22472997686630
H         1.26640278281464    3.08882202897055   -1.43404822316126
H        -1.02238082167195    3.46069905865242   -2.64110619346325
H        -0.15134902746682    3.59065667754922   -4.03573474262373
H         1.08183587962393    5.38678909501092   -2.92097761116173
H         1.48820506445063    1.62243579387955   -4.06073157019364
H         0.06266349777280    1.24117116858207   -3.18608425571139
H         1.55905869774403   -1.16363187813411   -0.87271182989560
H         0.74055267027207   -1.38551763559571   -2.42544502310314
H        -0.71189098058685   -0.78782150815875   -0.42607285134958
H        -0.89003215484757    0.01332748688365   -1.89079361888864
H         2.14457658958780    1.53648586331352   -0.38015158561889
