35
 energy: -49.722303744536 gnorm: 0.099098339850 xtb: 6.4.1 (79825abcba525fcdf90b791dcacef51065a7a4e7)
C         3.60798529548337   -1.53790414621767   -2.37684523247331
C         2.96574975749741   -0.29721255453313   -2.97992264128243
N         4.06492850083151    0.70269334569853   -3.11362496428303
C         3.89599256004328    1.57341988816377   -2.16066936210951
C         4.54230649409985    2.92223315209571   -2.17233307935720
C         3.64747104847626    3.78175320821721   -3.07334196042691
N         4.19902301549476    4.70550770351842   -3.79591575091447
N         2.26310442497647    3.80166870490003   -3.03954457873666
C         1.11448838439878    2.95145358954811   -2.67113934297425
C        -0.19957356021787    3.68169105464452   -3.05143696280834
O        -0.44990171044127    4.87607628230736   -2.31033933203737
C         1.24096396459970    1.50923110664005   -3.20990626486539
C         1.91711838579967    0.55990498602686   -2.17959230727606
C         0.98806780241119   -0.32637282120536   -1.29321018544782
N        -0.24509274933459    0.37722061041743   -0.90749873171415
N         2.83315321248714    1.32507611348858   -1.31071353391743
H         4.14266956054089   -1.23694562963897   -1.46810192623226
H         4.42429935203406   -1.96827794230871   -2.96638050941871
H         2.78127552633777   -2.22526701291066   -2.18597637205609
H         2.52670048596893   -0.56337725371766   -3.95105936121334
H         5.49857908134133    2.85585740612833   -2.69750367380559
H         4.64380665350995    3.35512064463205   -1.17519710785875
H         5.21479242769184    4.55577190237537   -3.84051688739166
H         1.99459641988157    4.59555493653076   -3.62567912677913
H         1.06261666611792    2.87126901093607   -1.57686348391010
H        -1.06756091941618    3.04422575121454   -2.85429862134218
H        -0.17010508134729    3.71066111541897   -4.14789110016551
H         0.13431058309724    5.64027253218547   -2.47637350322135
H         1.82957843373225    1.56174019385332   -4.13556604316588
H         0.24745528726585    1.14872189673937   -3.50890208388968
H         1.61963413580860   -0.64644225888691   -0.46488482959657
H         0.82370948265005   -1.24287589214114   -1.87345942850495
H        -0.86506951120241   -0.37673565674052   -0.62188482322605
H        -0.07953235126488    0.94061286910209   -0.07193065825395
H         2.51356793204438    1.99039399580634   -0.60966370868673
