35
 energy: -49.721651905806 gnorm: 0.108916632072 xtb: 6.4.1 (79825abcba525fcdf90b791dcacef51065a7a4e7)
C         3.37217726582329   -1.43091054915111   -2.12296943867497
C         2.89829488461416   -0.27446796955745   -2.99104806192621
N         3.98121774255795    0.70851696936812   -3.28583729669476
C         3.90955908403076    1.62726453584478   -2.36627416554553
C         4.70094614337081    2.89586679695155   -2.40512945641981
C         3.78104388374158    3.87443888706261   -3.14506097330385
N         4.25791317858941    5.01270029385284   -3.54078997401579
N         2.48094400914974    3.64841559762391   -3.56537466596162
C         1.34414492070376    3.07374441167180   -2.82015804330858
C         0.04339921571260    3.86770988517511   -3.10705740831475
O        -0.82766575357431    3.42563300812186   -2.06577943711701
C         1.17105208683107    1.58306847890437   -3.18648531323762
C         1.89632112629401    0.63510206092860   -2.18884000811765
C         0.94179117101453   -0.16668587461216   -1.25059420250284
N        -0.03099449475414    0.59400492867483   -0.45088206741123
N         2.91832175861555    1.38512134489784   -1.43217449065976
H         3.91114295012699   -1.00768954885882   -1.26700351683686
H         3.99657670781989   -2.14562685528633   -2.66927340003760
H         2.51135820935748   -1.97442317600137   -1.72808686828451
H         2.57152169576357   -0.69270904907259   -3.95282147320281
H         5.64546858486113    2.77705461736465   -2.94218452075607
H         4.77038658475380    3.08737663459602   -1.33252701188644
H         5.26796668118139    5.01531959544117   -3.35109909350078
H         2.23149229996046    4.34291099272443   -4.27343934161206
H         1.61013478442994    3.13656129944593   -1.75626739436901
H        -0.38614959841740    3.70335516583299   -4.10058794405135
H         0.20704190585149    4.94342279058877   -2.96569921526082
H        -1.29048670820157    4.13305948637414   -1.57770997321057
H         1.52588615464712    1.45965527839248   -4.21844082056908
H         0.11477261348825    1.31135206806411   -3.31636497936988
H         1.52860139364926   -0.71476772207011   -0.51391014401701
H         0.45893888489250   -0.93143757014187   -1.87163301909046
H        -0.46416067230643    1.27674111834759   -1.06783821902926
H        -0.74645720333699   -0.00505010876481   -0.03586248375427
H         2.58307707044767    1.96480053890317   -0.66546953084620
