35
 energy: -49.721656977441 gnorm: 0.126570291162 xtb: 6.4.1 (79825abcba525fcdf90b791dcacef51065a7a4e7)
C         3.64712976123976   -1.43825913368697   -2.61591672297406
C         3.02531082773696   -0.12265288914846   -3.06089521075927
N         4.05855835046404    0.95358107888386   -3.05948200760293
C         3.71287594949609    1.65675261727673   -2.01982732435300
C         4.26860485878902    3.02775246959199   -1.79919259125468
C         3.56449740777719    3.92089778266655   -2.82770913935054
N         3.82318568073280    5.11520036212479   -3.25941100761874
N         2.45885430062455    3.33672091796913   -3.42294063975364
C         1.22780183248720    2.87712784895173   -2.75123310560485
C         0.01368767043053    3.69538291830652   -3.26213160242448
O         0.03690630857618    5.00957436262537   -2.70463030495275
C         0.99897309036289    1.38477132953161   -3.07800668222942
C         1.86073983758525    0.45588100165716   -2.17552537137714
C         0.92516092225208   -0.62917684531410   -1.55775671889183
N        -0.05471870345117    0.13642263424008   -0.77150272881464
N         2.70388756723663    1.17888242685882   -1.20293719344150
H         4.48360620055785   -1.64465991588309   -3.29413760344201
H         2.87776751726310   -2.21176404480045   -2.71033053626802
H         3.92240598449443   -1.38077277032195   -1.56080251930310
H         2.77444218013858   -0.23789441743460   -4.12414434671697
H         5.34676829226230    2.94480636523488   -1.95841153365282
H         4.05255952532656    3.39893833393689   -0.79543990729350
H         4.74000261662754    5.47095142732323   -2.96093916286906
H         2.26587601684034    3.73132001059106   -4.34649709754839
H         1.31985493666257    3.02942380865926   -1.66730873173511
H        -0.89831707352508    3.18485792395828   -2.93618809321628
H         0.07536465458907    3.66983511314043   -4.35733139696031
H         0.90190975595599    5.45642554535202   -2.63420080376215
H         1.35100101878807    1.19813778362453   -4.10139051294904
H        -0.02506815965525    1.01146302024596   -2.94234058328835
H         1.60316810706435   -1.28511789192641   -1.01232940175371
H         0.20606855279412   -1.03915741821777   -2.27782810359133
H         0.32241995675117    0.93486054051274   -0.26686436436665
H        -0.43980515853385   -0.50280126925926   -0.07429665442018
H         2.21435888404150    1.77511147493922   -0.53876398034783
