35
 energy: -49.721430751875 gnorm: 0.115092505669 xtb: 6.4.1 (79825abcba525fcdf90b791dcacef51065a7a4e7)
C         3.50119433095146   -1.42646459721463   -2.53205347653123
C         2.85870923531716   -0.15928623713457   -3.07699050837362
N         3.90443603523221    0.87965829023725   -3.30705952066395
C         3.84940619537657    1.56942664806445   -2.20432665610315
C         4.48177182046515    2.89972261937479   -1.94436258874506
C         3.82016604343506    3.72384843040262   -3.05540562265308
N         4.44300126173820    4.66821554783340   -3.68777563856047
N         2.48202461217089    3.57505903797067   -3.37982670631986
C         1.24067497822876    3.04513933020645   -2.78304941739486
C         0.11477703207653    3.92234278341087   -3.38926698802769
O        -1.11039258255384    3.72330646760766   -2.68372470321548
C         1.01874984257543    1.54308227320367   -3.06738259388419
C         1.82805945578088    0.58318388971233   -2.14892478042232
C         0.89671564365279   -0.25323005238697   -1.21763159032596
N         0.39850038455428    0.74977195138403   -0.26355060501061
N         2.83851464865939    1.26008800613224   -1.31206273257061
H         3.80910842044883   -1.24822575860308   -1.49489509177565
H         4.31716162546034   -1.77014438416357   -3.17643198568635
H         2.72883298674616   -2.19754561374415   -2.56726274703507
H         2.37108540240973   -0.40046670828132   -4.03133290478842
H         5.56462954773520    2.97040556950224   -2.07509210034948
H         4.15515288972475    3.25886210554952   -0.96645006227774
H         5.37859724330189    4.98595644843685   -3.40511252782576
H         2.38590272638443    4.15818247261415   -4.21447228055843
H         1.25135140911304    3.35128508065952   -1.72819365836778
H        -0.08068368232444    3.74015766619363   -4.45097847468741
H         0.31424894572535    4.99526174916413   -3.27535835712211
H        -1.04805328242934    4.02508341155117   -1.75748944852951
H         1.20698848995009    1.21772113754521   -4.09926269735047
H        -0.02937686171668    1.29106086501346   -2.85681075905971
H         1.40461029185094   -1.05347189997143   -0.67995196774745
H         0.07479411316906   -0.71584008691878   -1.77809360038628
H        -0.43949833150173    0.41015478770270    0.20208323740182
H         1.16986765650129    0.93454863952854    0.37975740509096
H         2.38244645535467    2.00524830092280   -0.78957690596072
