35
 energy: -49.718155070582 gnorm: 0.107024357646 xtb: 6.4.1 (79825abcba525fcdf90b791dcacef51065a7a4e7)
C         3.46919289574153   -1.52401650517259   -2.41664254232177
C         2.82467081182260   -0.29129191017374   -3.03346163293195
N         3.88202644911998    0.71918460233527   -3.32811102968341
C         3.92721663068172    1.57024458724099   -2.34399561607324
C         4.61139352005408    2.89973195176158   -2.30500539852695
C         3.74231567124545    3.85971462897806   -3.12625998919449
N         4.32164057417664    4.86653007110708   -3.70102091608147
N         2.38869085127405    3.73882655868943   -3.39289783065061
C         1.30959698337753    3.05425375236185   -2.65477625152213
C         0.09240570054842    3.87854881474639   -3.14834983829562
O        -1.13326458670800    3.24544665526264   -2.78043685130076
C         1.06431777912727    1.55976677937231   -2.95910886053060
C         1.89588366516911    0.56672512147467   -2.09753000132308
C         1.01989691188643   -0.15406927372389   -1.02636278725038
N         0.37902855725708    0.90059249927153   -0.22543939783907
N         2.95112586728699    1.32357219914143   -1.39524563261421
H         4.41864276111459   -1.17450326412728   -1.99395692608131
H         3.72411963089857   -2.22796390629431   -3.21577488068175
H         2.87218282112786   -2.10145135272395   -1.70777328188321
H         2.27595301888468   -0.67036487773256   -3.90634586522249
H         5.67348022019136    2.78170275727640   -2.53458776619900
H         4.46265598252092    3.26171494194802   -1.28578046816767
H         5.34666381141953    4.83397200871287   -3.63420100928626
H         2.04217809887255    4.65379324939387   -3.69067370414259
H         1.43878826653385    3.35760016703689   -1.60699266311466
H         0.25282799446318    4.03939841890910   -4.21933989112439
H         0.15673323158317    4.83423619281030   -2.61314619244837
H        -1.83481871085244    3.76924497218574   -3.21208994819642
H         1.34897936784700    1.38095601209676   -4.00460620698430
H        -0.00279573302666    1.41314792527413   -2.74417506257102
H         1.64161048702937   -0.70197467633893   -0.31875042218565
H         0.30373815139298   -0.78986521610681   -1.56167657817302
H        -0.26460860696016    1.47592197846618   -0.76314166608656
H        -0.14289619186525    0.52860544462568    0.56968026150882
H         2.75840514808869    1.83358533318459   -0.53559524075667
