35
 energy: -49.717267576334 gnorm: 0.122696536416 xtb: 6.4.1 (79825abcba525fcdf90b791dcacef51065a7a4e7)
C         3.61140101787793   -1.42523910642059   -2.51695331291015
C         2.97445807290287   -0.13103040004937   -3.00152726301067
N         3.96684719301408    0.97626674524806   -3.12375187975775
C         3.71630899021103    1.76415934184907   -2.11812556102619
C         4.42324990800876    3.06857418607539   -1.92867529276547
C         3.88514956543633    3.77398103680759   -3.17934366720495
N         4.56059262121769    4.26892470632578   -4.16851111836863
N         2.52217180128486    3.90272846329171   -3.38845018958486
C         1.41181059565764    3.24439954815929   -2.67318243974762
C         0.05641280991023    3.89988070677881   -3.04449511478784
O        -0.80956890653345    3.56833186485346   -1.95886304577715
C         1.20980176345366    1.74566113305273   -2.98821745688589
C         1.86412287980482    0.60162636947693   -2.16177933710623
C         0.75428745182594   -0.26092966370433   -1.48460956247435
N        -0.28332224479716    0.55358549632179   -0.83312424132342
N         2.75727807994232    1.31545156947808   -1.22781772430997
H         4.27265263957112   -1.25418331150337   -1.65918651516982
H         4.25979972290011   -1.99444570412232   -3.19128634274244
H         2.79490179601242   -2.12779618585892   -2.33781584675587
H         2.63207865803888   -0.28902863782555   -4.03328658553546
H         5.51200780410516    3.02933487869364   -2.01661649793981
H         4.01927358943140    3.63085653501853   -1.08450960918636
H         5.57597839525859    4.14281835020502   -4.07214473360813
H         2.37994624063089    4.40914075749559   -4.26550438080585
H         1.53496493940067    3.49886632706933   -1.61174966967877
H        -0.29543172366965    3.49045215000663   -3.99696625296076
H         0.05158707613975    4.99661097820309   -3.07733935811854
H        -0.66064922000210    2.69082518591915   -1.55802365840497
H         1.56374123203693    1.44811830534531   -3.98434260688207
H         0.12812903697499    1.55620147458539   -2.96554576626929
H         1.19009549524138   -0.97338815806122   -0.78466843572418
H         0.17251165176094   -0.89481181703818   -2.16535255349346
H         0.14365601386734    1.24186424025855   -0.21801573718154
H        -0.89682285495549   -0.06341990933169   -0.29841271758545
H         2.34545665492549    1.94352248421076   -0.54066161467033
