35
 energy: -49.717480423943 gnorm: 0.123578575294 xtb: 6.4.1 (79825abcba525fcdf90b791dcacef51065a7a4e7)
C         3.40816186916278   -1.47217425090434   -2.74794042735448
C         2.97983360968589   -0.02456749655316   -2.93886971296079
N         4.17492070680458    0.86623446377677   -2.87467717242394
C         3.83050700048128    1.76730672480555   -2.00044814345361
C         4.37569173374991    3.16008078644692   -2.01088634966450
C         3.74873427655599    3.72817559308473   -3.28975883466635
N         4.39653871316814    4.26762555629723   -4.27413069732612
N         2.43603920012523    3.44958717699370   -3.63214746290195
C         1.28053557228612    3.12300951938156   -2.77420494557558
C         0.22542067818336    4.17022308748886   -3.21546235143144
O        -1.01296202893218    3.98182348796109   -2.53036395859108
C         0.98608878289671    1.60679218983306   -2.79984847809892
C         1.90054578566200    0.63331429482249   -2.00231426313635
C         0.99612125988857   -0.34867940284279   -1.19484836564107
N         0.04806833660443    0.36586982587144   -0.32587367499667
N         2.80209879067073    1.42405327990884   -1.14121557334176
H         3.57023368234480   -1.70407835452937   -1.68858643299456
H         4.35746632712414   -1.57030323611756   -3.28490767362852
H         2.74298961333861   -2.25127381995156   -3.12595813203876
H         2.58770220120820    0.16287341715600   -3.94773703610470
H         5.43881294172944    3.29317539128000   -2.22704893790902
H         4.09362057554880    3.77326898091070   -1.15274294934701
H         5.36624332116965    4.54641716995858   -4.07882126859265
H         2.17022577262558    3.65581133227376   -4.59792197595868
H         1.56618406831112    3.19682208060431   -1.71613286757148
H        -0.09551023617303    4.07516601674881   -4.25786106770789
H         0.70545116485642    5.14330481444963   -3.05236113250836
H        -0.77372769135144    3.40291262861904   -1.78170087736992
H         0.90886810277722    1.22078196684336   -3.82508175090196
H        -0.01029932801644    1.41266507873024   -2.38038422551067
H         1.69937143018300   -0.96643414407751   -0.63694010008574
H         0.46769171333596   -0.96188870045944   -1.93540037096036
H        -0.71975694962350   -0.21451995122144    0.00274246942545
H         0.54445710974906    0.66876989802590    0.51367668998377
H         2.27404976622012    2.01043313827071   -0.49811654172174
