35
 energy: -49.716436380154 gnorm: 0.122170535061 xtb: 6.4.1 (79825abcba525fcdf90b791dcacef51065a7a4e7)
C         3.71378823776939   -1.43155375114971   -2.92097109287032
C         3.03478219220473   -0.08987010653058   -3.15403803929030
N         4.09401405711830    0.93717855920890   -2.93249596985880
C         3.69604530337539    1.70212381801817   -1.95714575227099
C         4.05597498226860    3.10643831752673   -1.58903384985808
C         3.48495869887083    3.85627427312549   -2.79858280751366
N         4.02737865300104    4.94619822907798   -3.24298263341261
N         2.33214820547836    3.44623863006623   -3.44735751995263
C         1.11525171127851    2.98235911157487   -2.75317762994718
C        -0.04338198090771    3.91891197960969   -3.18337354212690
O         0.35189521987424    5.25949746034432   -2.89177027326514
C         0.88989432165517    1.46541529338378   -2.93856109579741
C         1.82306456281583    0.40755185467174   -2.28276394081320
C         0.97426875873184   -0.70928416231915   -1.59974158815739
N         0.08990838732579   -0.12707509276142   -0.57825184051870
N         2.59738240315347    1.18457169800636   -1.29472093311974
H         3.82712634086692   -1.65548003978781   -1.85359619871798
H         4.73184748991028   -1.36970481357528   -3.31955877897255
H         3.14273712311376   -2.23296155876402   -3.39425093635897
H         2.73570743178807    0.04019813499634   -4.20301418438791
H         5.13642585879667    3.26963130969608   -1.61474579990117
H         3.65732433326365    3.44896819763136   -0.63209866355011
H         4.93391201200876    5.14530768560474   -2.80167744865392
H         2.44551501812060    3.97145104981165   -4.31753307077690
H         1.23826631588777    3.11066373920398   -1.66921950023320
H        -0.98718135904365    3.83515823609742   -2.63487045628507
H        -0.08865765700267    3.74681152805251   -4.26607889474729
H         1.32054805545452    5.22342722813689   -2.77654057023009
H         0.92528511943449    1.23928795709394   -4.01265798684683
H        -0.11643027124712    1.24410923865454   -2.55808860595243
H         1.51467396740756   -1.54427030145699   -1.15454084109033
H         0.33985236462338   -1.03519236357281   -2.43339643162042
H         0.58845828136715   -0.19081378528823    0.30593248544812
H        -0.63515702229355   -0.82114964716353   -0.38974255456522
H         2.19834506240737    1.71822692280618   -0.52515301451274
