35
 energy: -49.715811062598 gnorm: 0.127033581396 xtb: 6.4.1 (79825abcba525fcdf90b791dcacef51065a7a4e7)
C         3.77759101890078   -1.36081056488669   -2.94521717122767
C         2.98460952099887   -0.08881109378507   -3.20728990922569
N         3.90216617077260    1.07652218094682   -3.04613733131821
C         3.60216150574754    1.63128725795257   -1.90725132984385
C         4.04270683296982    3.02320614671986   -1.58223357260752
C         3.55287576324762    3.93870217433145   -2.71061946823649
N         4.25445817641518    4.92591257295588   -3.17196806618733
N         2.39635538939073    3.48086548637009   -3.31959895228071
C         1.20166229389539    2.88110399998938   -2.69437776939830
C         0.05961105426603    3.84691592058003   -3.10371639559729
O         0.19690825699395    5.26448068664280   -3.00319002231283
C         0.94476109153937    1.39603614086132   -3.03326821001038
C         1.80326389420189    0.35017641420559   -2.26573837879013
C         0.91126420127976   -0.72853981184566   -1.57653274843051
N         0.31539938695204   -0.08652072534921   -0.39447581491212
N         2.60316637835210    0.98629400721210   -1.20034297207147
H         4.53869991137093   -1.61557498868309   -3.69226872083325
H         3.12976319073733   -2.23714067525103   -3.05248655154186
H         4.18833686535468   -1.35888249904072   -1.93347026853533
H         2.70923177883510   -0.08767722936327   -4.27071843586939
H         5.11147560109561    3.25077636573366   -1.60697737687914
H         3.57618945285979    3.37344779742708   -0.65937588199924
H         5.06563309276127    5.28221405195635   -2.65115902012669
H         2.21009154932556    3.76461367815739   -4.28432602715350
H         1.28693221124554    3.17836501585305   -1.64037359188014
H        -0.82513564813078    3.71092858271981   -2.47335276550028
H        -0.18369031266298    3.57249719332946   -4.13784314491830
H         0.89222633040475    5.47290507153579   -3.65584560734395
H         1.06416465950326    1.18126638419474   -4.10363587428595
H        -0.14287259347457    1.32409797627859   -2.89798060845746
H         1.55192969557532   -1.51560122481391   -1.17963803178636
H         0.24557281874068   -1.10294111096107   -2.36416169633658
H        -0.21225969526696   -0.78850355828481    0.11854712304136
H        -0.31783302527734    0.63427196497504   -0.74443252119660
H         1.97271514628253    1.44541645803368   -0.54613252823888
