35
 energy: -49.723510425615 gnorm: 0.114314603370 xtb: 6.4.1 (79825abcba525fcdf90b791dcacef51065a7a4e7)
C         3.54570604818895   -1.32897693731591   -2.33142626830647
C         2.89891452338259   -0.10711779547107   -2.96719776482628
N         3.93325522043545    0.96206795963326   -3.08061356870322
C         3.75853152012448    1.73278099538767   -2.04605982252830
C         4.33944329336183    3.11084636720707   -2.07120444868370
C         3.77104497851114    3.78898434304571   -3.32355200130356
N         4.44736228424519    4.60753470264442   -4.06666369796123
N         2.50849569804441    3.43777546046342   -3.77147103171222
C         1.43006741256476    3.09870988225083   -2.82282255301445
C         0.26671859140802    4.08020344386730   -3.11933855040825
O        -0.83537431862731    3.85152205669772   -2.24096391691410
C         0.96274951553822    1.62765806866248   -2.88520899255768
C         1.82501497763738    0.61774715778654   -2.07494366676495
C         0.96152317425751   -0.47355435122661   -1.36943712755732
N        -0.09164684735098    0.25565901019359   -0.64584694127131
N         2.72003805249677    1.39647138882180   -1.19626329229495
H         3.81288616187715   -1.22216942993458   -1.27336926674888
H         4.46416588959957   -1.54627208701855   -2.88672476179787
H         2.92114049421422   -2.22337857950671   -2.28335097398103
H         2.45784834360244   -0.32812994088355   -3.94869084655440
H         5.43163358068453    3.07684546279147   -2.04607606968458
H         4.07953387183645    3.66480736154425   -1.16702067662664
H         5.47480187960035    4.58589953640005   -4.07653028692515
H         2.19824021342536    3.80803233190942   -4.67289044871145
H         1.75710935187126    3.44845563575267   -1.83424713252569
H        -0.13425933515922    4.05105310759094   -4.13766784314789
H         0.73896805532976    5.04900111249680   -2.91359391945357
H        -0.53014344941671    3.57233698656517   -1.35679364320267
H         0.92326134945590    1.25366831807087   -3.91702416753307
H        -0.01874920348592    1.69584419345017   -2.39691012187981
H         1.56627041967448   -1.16009965971953   -0.77750836187831
H         0.61593578289669   -1.06307546299223   -2.22775812096619
H        -0.99924441526134   -0.20257437877350   -0.61966769413137
H         0.28398752222584    0.40718034923407    0.29166849394252
H         2.24720163462300    2.13482812298066   -0.67905101871180
