35
 energy: -49.722915566020 gnorm: 0.104631889485 xtb: 6.4.1 (79825abcba525fcdf90b791dcacef51065a7a4e7)
C         3.43370407676836   -1.38002742709943   -2.60618138151574
C         2.91541942600509   -0.01843617783770   -3.04542476636009
N         3.94828350088121    1.05810742499054   -3.05672458184062
C         3.77067135373955    1.85251652684449   -2.04075384414692
C         4.48930240939427    3.16427736217979   -2.04355910808861
C         3.85806060612161    3.78281924288577   -3.29666003677346
N         4.51722946253848    4.29657244330653   -4.28721487455777
N         2.48628647078744    3.68834413296580   -3.46194774498577
C         1.39002042770239    3.17854200590483   -2.61565611077967
C         0.15686295836459    3.99124630106361   -3.08837825647115
O        -1.08067416702499    3.53279934112989   -2.54360839091572
C         1.08560309422857    1.67299671798576   -2.77977499930326
C         1.91704024361058    0.61066745211647   -2.00510054746452
C         1.00306771234428   -0.39503585312733   -1.23860746221134
N         0.21592978614805    0.33806259456193   -0.23487316839245
N         2.84904886955601    1.35632700350361   -1.13624571867539
H         3.94423157707410   -1.29107020726856   -1.63988641116113
H         4.10952354920998   -1.69138690189945   -3.40958999798085
H         2.64475422025311   -2.13191208866389   -2.53854079678312
H         2.42719437429406   -0.18040397758275   -4.01605196471442
H         5.58151517143890    3.15279155566256   -2.00347807512959
H         4.11127125345039    3.71177624062159   -1.17793133582255
H         5.52860122180120    4.14124806428700   -4.19130309305803
H         2.32001849667462    3.93185867106954   -4.44121340384058
H         1.56448184997911    3.36004433467589   -1.54646014989311
H         0.02821524604046    3.94578170224338   -4.17466106140870
H         0.31841987931382    5.05450766427227   -2.87090649615041
H        -1.83224904165183    4.04597196537146   -2.89667541837712
H         1.13233734457247    1.35124388507840   -3.82875604654097
H         0.01858223241582    1.55277611284144   -2.54860759960479
H         1.65677124123078   -1.14489460848309   -0.79383009196647
H         0.43776752128018   -0.80357459931648   -2.08549146064511
H        -0.71862438463698    0.44452688702537   -0.62174575269227
H         0.11300172006609   -0.18274021607271    0.63757472782323
H         2.35683024775639    1.80006052172572   -0.36353951494582
