35
 energy: -49.724645242829 gnorm: 0.101714018517 xtb: 6.4.1 (79825abcba525fcdf90b791dcacef51065a7a4e7)
C         3.62669788212816   -1.40714893386117   -2.73634244114352
C         2.99193974344263   -0.09910365153566   -3.18532361755162
N         4.01123781803864    0.98149082199853   -3.04665485517783
C         3.70079847134667    1.65291914044964   -1.97537532140450
C         4.23867128267037    3.03070305876108   -1.75275629777779
C         3.63247265464599    3.93820622359368   -2.82992081426798
N         4.21646177885134    4.99956590676776   -3.29048255974797
N         2.45227062584808    3.53452790740027   -3.43173209555554
C         1.27691148277437    2.92506788324689   -2.77981466629889
C        -0.01181555270454    3.70757791267828   -3.14243363780662
O        -0.05837657121498    4.96698994347173   -2.47149446881483
C         1.01865186800933    1.44382709830735   -3.13407341267201
C         1.81469734933195    0.41710550892813   -2.27844144180174
C         0.95480423145622   -0.63138662823132   -1.50672606585291
N         0.01340813159704    0.03397710125282   -0.59263281979044
N         2.63741782209581    1.11648086603617   -1.27168323922269
H         4.67565441949724   -1.24004071678662   -3.00845035048541
H         3.26880506424892   -2.23786935341434   -3.35356071473121
H         3.66491641197623   -1.50442258451286   -1.64940875040702
H         2.62254143276571   -0.18171891285053   -4.21655299526290
H         5.33106621110598    3.06387699826276   -1.76824618677666
H         4.03102871182261    3.35520764016211   -0.73121073983404
H         5.04416450946782    5.35110433976286   -2.79296222999172
H         2.27336419572729    3.94360671055006   -4.35181503266752
H         1.30065411037385    3.08971236662068   -1.69404840658581
H        -0.91673915955414    3.22463221836748   -2.75967481543803
H        -0.04964213592646    3.77907334361321   -4.23668081501709
H         0.72115821170984    5.49602785472203   -2.72705595166834
H         1.29077499378728    1.23560167835266   -4.17746278997003
H        -0.04934971227669    1.20424074923979   -3.04244437937487
H         1.46413642595046   -1.33109316582342   -0.84458194765268
H         0.60351112527030   -1.35940248543113   -2.24852574922139
H        -0.58292600584604   -0.63313254233750   -0.10915908031690
H        -0.54411464522987    0.72044834824032   -1.10343675998766
H         2.13518484971292    1.44193887794271   -0.44821945989226
