35
 energy: -49.720748830593 gnorm: 0.109674287500 xtb: 6.4.1 (79825abcba525fcdf90b791dcacef51065a7a4e7)
C         3.48126602438890   -1.32690674545355   -2.31875574794212
C         2.83629522379182   -0.13846724462602   -3.01668744646441
N         3.96428047777468    0.82640924978685   -3.16683610755311
C         3.85231096446001    1.68406678815865   -2.19384340994120
C         4.58167005134837    2.98858600764982   -2.25232296317482
C         3.78545206896644    3.85392234042635   -3.23647343855370
N         4.28971322421482    4.91079280237509   -3.79180246249533
N         2.58306623971254    3.31690191268542   -3.66529418581929
C         1.38356710278966    3.07550795355025   -2.84016524630266
C         0.13916382718378    3.92753178998017   -3.20092513685750
O        -0.94873585339327    3.69889358794639   -2.30502067140900
C         0.97544342500895    1.59785056042071   -3.03052084053540
C         1.84663962154271    0.68923700345018   -2.11652397707356
C         0.92599264831526   -0.25807904234158   -1.28628426011722
N        -0.01093603471939    0.37683838426703   -0.34631274338732
N         2.81980172005409    1.44620478064548   -1.30442039454136
H         4.14230661143021   -1.03491856729719   -1.49410677803876
H         4.03659807702584   -1.99144377726545   -2.98893402371891
H         2.79988061669922   -2.07001930271083   -1.89941660653519
H         2.49337363841105   -0.42344169565841   -4.02063403643266
H         5.54988844493887    2.77893260659373   -2.71412999562242
H         4.64423208795745    3.45984745138540   -1.26948389072012
H         5.26673406840340    4.97208214594563   -3.47895832383426
H         2.38046069413121    3.86748226426661   -4.50298021349298
H         1.56926352952806    3.32813293620489   -1.78742722430375
H        -0.27673071781500    3.76148903731334   -4.19996924075880
H         0.39249469218030    4.99451121132576   -3.23694892468323
H        -0.69309492072814    3.63933858220876   -1.36482485468498
H         1.06907153736970    1.41474221813239   -4.10930502421658
H        -0.10457299363564    1.51598980153100   -2.84807025339307
H         1.56750456722128   -0.93248249625849   -0.71963993599338
H         0.33486111980806   -0.82842640911271   -2.01357244165581
H        -0.85914008377505   -0.15251371114827   -0.15994541446057
H         0.33598376080232    0.49521205002431    0.60690780230696
H         2.50082338366633    2.21837026444820   -0.72281334792088
