35
 energy: -49.723882384774 gnorm: 0.119672156508 xtb: 6.4.1 (79825abcba525fcdf90b791dcacef51065a7a4e7)
C         3.63726843012144   -1.39558293336486   -2.64763027023229
C         3.01286054253666   -0.12464951686789   -3.20470070486285
N         4.07653008676914    0.90115573732292   -2.99924349749375
C         3.71919970988430    1.61693962593206   -1.97221048340684
C         4.18266183498182    3.01370592625714   -1.70499962184553
C         3.59646606361845    3.87724190312789   -2.82838837668717
N         4.14127773650407    4.97976865780713   -3.23736244816542
N         2.41332149795059    3.52432074821339   -3.45578412688913
C         1.29107419845944    2.99602775800515   -2.65617517325101
C        -0.03231622960848    3.77345150361547   -2.87726769353220
O         0.16637831835720    5.18683290699088   -2.91359170260011
C         0.98608278150598    1.51791800182507   -2.98548246585195
C         1.84483212066375    0.41646463355992   -2.30042649638753
C         0.91649820172407   -0.67733240360249   -1.68715601506308
N        -0.14621504213457   -0.07939438819965   -0.86398370911509
N         2.64473384064973    1.10426634760716   -1.26764242020702
H         4.59115547753816   -1.44134587257181   -3.18640938580037
H         3.00298544520908   -2.28015711295925   -2.76744550252565
H         3.86924080699964   -1.35352643655164   -1.58143716877195
H         2.86429541868035   -0.31740224655648   -4.27590991911747
H         5.25997903614643    3.18647291514491   -1.76985588025065
H         3.77256704031349    3.36276576917155   -0.75528731002682
H         5.09578708699432    5.06299011417015   -2.86563182770402
H         2.14483668111724    4.14800215892075   -4.22053440593206
H         1.42451891930106    2.91893835158707   -1.56860466647330
H        -0.69532485077848    3.55758228079236   -2.03320156247928
H        -0.50620558170412    3.56958051649678   -3.84566060144437
H         0.84234129134300    5.44845257452298   -3.56742384237804
H         1.00664433963797    1.32248503428927   -4.06597002494610
H        -0.05301571406679    1.35712960491308   -2.66791944279271
H         1.62927729752515   -1.36450364016141   -1.23198022569646
H         0.45449712282350   -1.21630194689401   -2.52366515012081
H         0.27025139682141    0.42236760949080   -0.08347929694177
H        -0.83100106026249   -0.80453072574405   -0.64434654525474
H         2.21457271521119    1.67623948512699   -0.54372143127041
