35
 energy: -49.715600283147 gnorm: 0.115784935856 xtb: 6.4.1 (79825abcba525fcdf90b791dcacef51065a7a4e7)
C         3.59025133520088   -1.42322362001633   -2.54719871809352
C         3.07655766276233   -0.12568414366597   -3.15382427209599
N         4.06909896150887    0.98668004060987   -3.09560318285202
C         3.65939866476374    1.68242645048004   -2.07437303526283
C         4.24542306645709    3.01854225073093   -1.74494186725148
C         3.67121265610576    3.91569534609154   -2.84799259110397
N         4.29786497819197    4.83085122701780   -3.51839647609387
N         2.40122345430342    3.58819420998622   -3.29282992380723
C         1.19640049404984    2.94895924462667   -2.72919240656568
C         0.07866266043825    3.96836547050092   -3.06993409861890
O        -0.21843224639294    4.82259913936649   -1.96518733679983
C         1.01380624157162    1.50677955545411   -3.25173294210266
C         1.81939546341163    0.46908317644569   -2.41856795172531
C         0.91397508133875   -0.64844981978770   -1.81389408138944
N         0.19856206069600   -0.02536991184043   -0.68941303624157
N         2.59062070379471    1.16149278786011   -1.36721763059029
H         3.31605541646376   -1.48077116988392   -1.48711260843186
H         4.67692931825041   -1.31143439548144   -2.62320013042443
H         3.20760679451274   -2.30482539403378   -3.06557033448717
H         2.88403620375683   -0.28622407053826   -4.22334605345262
H         5.33003944248052    3.13059624028428   -1.82056163913332
H         3.90389178184985    3.32346501528979   -0.75380490236130
H         5.23220841819659    5.14660328549050   -3.22943189767715
H         2.27716687866894    4.01436306129900   -4.21418526691924
H         1.31671118038045    2.95673758137106   -1.63739356172404
H        -0.89153331050380    3.47755311224242   -3.19819397989932
H         0.40505877790366    4.61222425518879   -3.89626984500629
H         0.49221962924309    5.29039922222949   -1.48664345047977
H         1.10299731357608    1.55885943446413   -4.34507773240852
H        -0.03665953671857    1.19914234196210   -3.16059643893865
H         1.48389585773968   -1.47349442991171   -1.38735562203229
H         0.29377122829737   -1.12730446839851   -2.58183034755023
H        -0.28106534125392   -0.77011240862664   -0.18970040926968
H        -0.63374039782315    0.48019726859356   -0.99709717682385
H         2.08894475488159    1.60072473666105   -0.59802974149345
