35
 energy: -49.723234013213 gnorm: 0.110993098127 xtb: 6.4.1 (79825abcba525fcdf90b791dcacef51065a7a4e7)
C         3.36380567310611   -1.32456516379273   -2.75178077531256
C         2.81322735652869    0.06499234150247   -3.03722409656412
N         3.88079334614504    1.10699875562932   -3.05741052802638
C         3.78644800678152    1.79372517674686   -1.95544219499883
C         4.52692405304861    3.09323211064642   -1.94395768665957
C         3.94653128285171    3.78434469878896   -3.18364708468894
N         4.64496460253885    4.40545842586168   -4.08145186729515
N         2.57692938864065    3.68326322260138   -3.36248498633675
C         1.42301097672627    3.30516287552014   -2.52378399163565
C         0.12493788741406    4.02140636393137   -2.97835339445620
O        -0.57389932173428    4.32050384709336   -1.76979507406378
C         0.97488095837332    1.82850981581147   -2.59411704012681
C         1.82866853992047    0.68356579694179   -1.97759321097259
C         0.92145066101190   -0.30119511439511   -1.17665737993236
N        -0.26122074051657   -0.68283550248151   -1.96414765769134
N         2.77785598032727    1.39341057992831   -1.09741111423034
H         3.64512292614865   -1.38156938401723   -1.69353278811285
H         4.25301719298013   -1.66973283152988   -3.28965085840179
H         2.55513978471267   -2.04284847652882   -2.90170152104441
H         2.42902186518733    0.03166038465471   -4.06581027811769
H         5.61466659195179    2.99826656615295   -1.99360489653672
H         4.31010574923511    3.69931377158062   -1.06212502529149
H         5.61324549997970    4.13262156087741   -3.87123835625496
H         2.29140139543356    3.97489938518439   -4.30020973269000
H         1.62993332004799    3.68080620710211   -1.51252976872131
H        -0.49775847251065    3.45661139743394   -3.67969744406626
H         0.34439209712673    4.97921340836452   -3.46657961591070
H        -0.76848105737415    3.47692940747655   -1.31881018006986
H         0.80038136402717    1.50473388881389   -3.62890650898391
H         0.02880767192636    1.78525792364364   -2.03779025873710
H         0.45348034763989    0.25929386550522   -0.36776971779292
H         1.53835921463633   -1.10649794051297   -0.75881543194308
H        -0.79250023249865   -1.40521105233277   -1.48423912096029
H         0.12657292133198   -1.11017743805249   -2.80675672026730
H         2.46290431656680    2.09248736606080   -0.42782125725197
