35
 energy: -49.717679540467 gnorm: 0.104867143487 xtb: 6.4.1 (79825abcba525fcdf90b791dcacef51065a7a4e7)
C         3.74936095259593   -1.24960980180884   -2.21283178691534
C         3.17258087902837   -0.19410984924934   -3.14488813763474
N         4.14659241689991    0.91735523832630   -2.94036703179531
C         3.70147093106568    1.61714861040440   -1.93688085655524
C         4.07954861687163    3.02547587517209   -1.60397471168159
C         3.64331403506083    3.68414655470354   -2.91819481805715
N         4.32668896313420    4.36510337863179   -3.78360875824887
N         2.26676915453823    3.76662810846910   -3.04598686207185
C         1.13669453303045    2.90503050549455   -2.64788150149970
C        -0.15027198098021    3.70022315286129   -2.98849514718593
O        -0.10290283369904    4.91415812986188   -2.23845248934831
C         1.34430810588556    1.56082581446522   -3.38019418518079
C         1.89176388411326    0.42304587266594   -2.47151348166398
C         0.75791277168242   -0.50220158538480   -1.93059268942293
N         0.03241640973526    0.29692786067845   -0.93081815348342
N         2.54917177827752    1.12444889601519   -1.35106465278058
H         4.72468209019380   -1.54959391785569   -2.61412456099217
H         3.07149803614368   -2.10942685003644   -2.19389531198007
H         3.84706837459802   -0.86260076944763   -1.19645344469875
H         3.05969162083404   -0.49636066280120   -4.19494283270013
H         5.13401417711547    3.16034044122880   -1.34984669910296
H         3.51176372524676    3.43882853913397   -0.76807167901558
H         5.35284401124099    4.39811298950046   -3.73763341790813
H         2.05875755909037    4.25804753649565   -3.91842237172413
H         1.11389350599368    2.87084326494873   -1.55021524417163
H        -1.10410578455058    3.20324473711952   -2.78394414936424
H        -0.10970055784920    3.86281169341013   -4.07285590453632
H         0.79160947385410    5.29792633343767   -2.31218821536240
H         2.11141410825898    1.71313873198094   -4.15118014851951
H         0.42442552497285    1.37105940404386   -3.94960580092201
H         1.24327333168358   -1.29052690663527   -1.35577822789337
H         0.12743616798615   -1.02953385781143   -2.65729799774881
H        -0.56278791597980   -0.33658020113029   -0.40280689955517
H        -0.63857650455537    0.98631908382520   -1.27360574234824
H         2.08837060862848    1.45131415039029   -0.50426193367419
