35
 energy: -49.727034124075 gnorm: 0.115079587184 xtb: 6.4.1 (79825abcba525fcdf90b791dcacef51065a7a4e7)
C         3.66030212325295   -1.41300161424728   -2.85042700805778
C         3.08003617686330   -0.03047241001506   -3.11002068220357
N         4.10591568910232    1.04408873628962   -2.97301126567374
C         3.74702733258099    1.61693665768821   -1.86041392426110
C         4.10117188606944    3.03466937544831   -1.54139897059024
C         3.63678919795486    3.85853084966245   -2.74842969965421
N         4.30932767972158    4.67062778066609   -3.50197821930705
N         2.31147778445558    3.75355129125006   -3.13642298222528
C         1.15041643874151    2.99449851927367   -2.63275404075985
C        -0.10610654574225    3.75809846726387   -3.12539686030885
O        -0.03245747557672    5.10875271649836   -2.66849985277716
C         0.99702991725437    1.49193844560496   -2.95687951294405
C         1.89118940808617    0.46392795033540   -2.20612994002283
C         0.95803500837344   -0.71082170262076   -1.77778113413596
N         0.03244449264437    0.03943210786944   -0.91470326222252
N         2.68811639228777    1.09787740748552   -1.13721814836197
H         3.96802690867856   -1.52505056556344   -1.80399107141530
H         4.57836126662601   -1.55823808889090   -3.42940529536152
H         2.90667928806188   -2.16258287187461   -3.10048345902479
H         2.76699909687973   -0.00492986208475   -4.16266962270255
H         5.19102700315572    3.11472038357719   -1.56318912337130
H         3.72495702486577    3.36809894658911   -0.57224413343711
H         5.31639934545282    4.83905373010420   -3.38520101618522
H         2.19575284838003    4.06316969453701   -4.10422966711530
H         1.16801474436539    3.17692271863776   -1.54971590638084
H        -1.01554725883057    3.31517608077124   -2.70663088164079
H        -0.20651805515139    3.80404787118603   -4.21705867141495
H         0.69335190072228    5.42943339267928   -3.23703473860503
H         1.09817756822246    1.47220384399049   -4.05024583210354
H        -0.03147381359246    1.28058238567249   -2.63449221504844
H         1.38752258954979   -1.58328576905635   -1.28605943506462
H         0.40288625737209   -1.04359647253271   -2.66364316305570
H         0.59182610119985    0.25763234855268   -0.09380289415718
H        -0.74933517641925   -0.55942750397831   -0.64418005894410
H         2.27102583812606    1.73027327798206   -0.45724431014165
