35
 energy: -49.720636717391 gnorm: 0.112129254459 xtb: 6.4.1 (79825abcba525fcdf90b791dcacef51065a7a4e7)
C         3.71381013767883   -1.28705227413087   -2.64317454101085
C         2.96019797244255   -0.09554293298758   -3.21576395943770
N         3.93918286167138    1.02579960283852   -3.11545689319435
C         3.65209406999007    1.64797110959160   -2.00851919948625
C         4.25319697283816    2.96616148261443   -1.63676072101464
C         3.65429046051442    3.89294352132472   -2.70151807036792
N         4.13290881286454    4.99072164138428   -3.19694967292113
N         2.45165483134869    3.56026388158054   -3.30235218718737
C         1.23731516698852    2.95004848440509   -2.72709285112624
C        -0.00061018589452    3.76864148692409   -3.17662386703456
O         0.02986844058432    5.14461727539188   -2.79687706432128
C         1.02526328233320    1.46746788238240   -3.10559022977462
C         1.76659390102056    0.36284322349280   -2.29924976549763
C         0.78195481361782   -0.68317445250782   -1.69045634919067
N         0.14855906772035   -0.08371227190446   -0.50556947868369
N         2.66511916991149    0.98158195986740   -1.30457813563767
H         4.57941451917660   -1.49529177644603   -3.28320817141695
H         3.16022205370986   -2.22114166341379   -2.50119100937333
H         4.20478289203717   -1.09702568178324   -1.68652240233421
H         2.66362125426853   -0.24447988922547   -4.26293846704468
H         5.32270596361973    2.74424164261294   -1.67637429068541
H         3.91907461112553    3.36605922080608   -0.67737652277551
H         5.08131143104050    5.27464383843511   -2.92105436960709
H         2.40710073719385    4.10003348956290   -4.16985970332297
H         1.31560428520188    3.16083528483576   -1.65191862704550
H        -0.84927897727373    3.44680936559801   -2.56440416564997
H        -0.18731968146643    3.73767687755223   -4.25741065347330
H         0.94236912397712    5.47829850018820   -2.89103970465036
H         1.36225962656344    1.39819148134226   -4.14852093369558
H        -0.04344235571400    1.21615239131516   -3.07192057701781
H         1.37081069697473   -1.55243992333270   -1.39878934122203
H        -0.01777783970155   -0.87566015558560   -2.41644370660522
H        -0.32174680762125   -0.87968375341109   -0.08173186219847
H        -0.58781154082105    0.49090757632015   -0.91856517396349
H         2.18581552611228    1.29170621615169   -0.46175879840268
