35
 energy: -49.719427925721 gnorm: 0.111214736125 xtb: 6.4.1 (79825abcba525fcdf90b791dcacef51065a7a4e7)
C         3.44582060152369   -1.46588631644176   -2.57873956579280
C         2.89134709540949   -0.17358143586290   -3.16011009673891
N         4.01275631641854    0.80883649551951   -3.21648727402670
C         3.82699869501701    1.59140164931969   -2.19281041854897
C         4.41360386303675    2.95131665625218   -1.98381167989604
C         3.88659871866035    3.92641032281527   -3.04342486251294
N         4.51838539472759    4.71286603833150   -3.85704504397129
N         2.50364199800998    3.95413656060398   -3.11177554663848
C         1.43751762108990    3.13207533081718   -2.50720864315455
C         0.23324756891854    4.07454535470248   -2.76433848734494
O        -1.02371558103607    3.47426972917262   -2.45103547152961
C         1.25071290938227    1.72285396364897   -3.11175037383293
C         1.84959031083660    0.57492283599763   -2.24945592557088
C         0.80012945868810   -0.27089031721473   -1.46362603312571
N        -0.21733591947751    0.61063694296366   -0.87018195043985
N         2.85896218237861    1.12362615366962   -1.32228276484113
H         3.91825149937220   -1.31677992808441   -1.60055041346737
H         4.26001553476888   -1.79403752451523   -3.23337341909068
H         2.64871513766744   -2.20500761502816   -2.47544262656904
H         2.39356727501154   -0.37512820992913   -4.11839428268924
H         5.50569590184132    2.94358525996874   -1.93973975876603
H         4.13466428982776    3.26484068393667   -0.97590821306138
H         5.53934824861850    4.74341217737390   -3.74346976739483
H         2.29038648957966    4.56784939329963   -3.90157567927739
H         1.62326268876067    3.10278661937723   -1.42498831629390
H         0.22393214460908    4.49916083762499   -3.77341852045715
H         0.30520066617086    4.79658650294945   -1.94129615936576
H        -0.73222732638312    2.64648289805013   -2.02363539830116
H         1.63663076747533    1.59547823495843   -4.13200183767886
H         0.16813133500226    1.60133448349024   -3.25201810136441
H         1.35910526422452   -0.82466929711459   -0.70975717233934
H         0.31476957771803   -0.94438520269752   -2.18092035375766
H        -0.50799528822674    0.32343206129569    0.06117567523198
H        -1.08612615679454    0.46649389078041   -1.38730997319815
H         2.66386255466024    1.74433551960266   -0.53939739059733
