35
 energy: -49.714741272245 gnorm: 0.123865398398 xtb: 6.4.1 (79825abcba525fcdf90b791dcacef51065a7a4e7)
C         3.71436541600271   -1.28507077366841   -2.53450379893438
C         3.09332178940237   -0.00621796813340   -3.07702082935210
N         3.95149686398343    1.20429262372280   -2.92183828147098
C         3.63331017228314    1.79542087076257   -1.80642221537912
C         4.05612525502566    3.20043981548657   -1.51607062586531
C         3.65722005745503    3.88939020985693   -2.82662171240597
N         4.39208047172514    4.48279966287843   -3.71402814911886
N         2.37435984543576    3.69338260204419   -3.31021298454457
C         1.27144042972389    3.00394720895750   -2.61296514500078
C        -0.06704365376586    3.72455696785057   -2.91925545189688
O         0.18558473116505    5.12977029648840   -2.91985380888159
C         1.01616822109452    1.52949911242010   -2.99651488774622
C         1.87026040459341    0.48712415700220   -2.21938386481573
C         0.92754579846687   -0.69185195029114   -1.82492093060491
N        -0.15252911858497   -0.33264525376484   -0.89276715241146
N         2.55812386256824    1.22981609475845   -1.14476326829240
H         4.69495915027493   -1.51774731980758   -2.96644734209195
H         3.07529761551741   -2.10003074060086   -2.89027714665338
H         3.76212868271262   -1.24851984815022   -1.44421468159506
H         2.79289196446346   -0.17622706721647   -4.11987902779635
H         5.14064389998340    3.12555509171850   -1.40258623142913
H         3.76195115602318    3.78305480375925   -0.64085903054493
H         5.37059107168040    4.48557493343535   -3.39985165640577
H         2.30795849869821    3.55146227849954   -4.32083411608367
H         1.49954263768880    3.20123030217383   -1.55674138195634
H        -0.82478116913657    3.60870501191230   -2.13756512369046
H        -0.34654430571872    3.47448371350912   -3.95040145580049
H         1.04341195991145    5.28446677858434   -3.35924964945830
H         1.12841767361413    1.42919713313332   -4.08436127278021
H        -0.02733359957678    1.24811939121603   -2.80067245702843
H         1.60256447537284   -1.38141331611932   -1.31866184780658
H         0.56368215429440   -1.12636271532638   -2.76432730501492
H        -0.43151177697763   -1.17259638927332   -0.39172094814608
H        -0.87818187474422    0.22086462882994   -1.35107923528299
H         2.01200153936041    1.42671047941414   -0.30855967868040
