35
 energy: -49.710870876431 gnorm: 0.111747547009 xtb: 6.4.1 (79825abcba525fcdf90b791dcacef51065a7a4e7)
C         3.46614359042514   -1.36313523320520   -2.25576165877394
C         2.93506766294239   -0.13529658040798   -2.98092031246282
N         3.96229549981667    0.94418165096287   -3.05448487472572
C         3.74732743782979    1.81301039053300   -2.10909934969965
C         4.45258238739916    3.13114793130418   -2.15688879664445
C         3.82029161782600    3.85688389473242   -3.35055453086529
N         4.53285439771455    4.68183281519755   -4.05152411578922
N         2.48634664926687    3.61251589170940   -3.63141913091197
C         1.36800862681191    2.94853257938966   -2.93402886058490
C         0.09409228718510    3.82927413135785   -3.01189614127015
O        -0.78285118035606    3.45411613123680   -1.94950610364797
C         1.07184604900614    1.46960405601772   -3.26768993452193
C         1.83032379634259    0.65131724905508   -2.18368349342219
C         0.79892337987470   -0.24181118816342   -1.42682724204531
N         0.41707395128256    0.44616248639977   -0.18369199939760
N         2.62553414605399    1.56418799761244   -1.33877848849653
H         3.65830976902973   -1.29815192042650   -1.17820562129985
H         4.29592365317925   -1.73879692509249   -2.86361478919886
H         2.73064425505117   -2.16923618443578   -2.29563216282565
H         2.75544618914246   -0.42150733849659   -4.02616380686670
H         5.50644382410047    2.91893013288472   -2.35439024368383
H         4.33198502481208    3.69784427515893   -1.23153181992185
H         5.52686204875677    4.80871911051431   -3.82338771904056
H         2.23988714413372    3.88076035536116   -4.58703841382583
H         1.57579346976258    3.02108497311053   -1.85786832101853
H        -0.51556858489646    3.65225939845107   -3.90386418932116
H         0.36872181713775    4.89097606429091   -2.97602196229381
H        -1.19218293608234    4.23706740604704   -1.53441325131118
H         1.30485387138935    1.19300824026096   -4.30464332095019
H        -0.02021992405765    1.37171521161855   -3.20261635488686
H         1.22369240800831   -1.22541194067884   -1.22796999430918
H        -0.10377763858138   -0.38476448075232   -2.03376706337004
H        -0.13992233456998    1.25759994174040   -0.44005294836088
H        -0.21349356977678   -0.17396715260497    0.32701233947422
H         2.49894671431298    1.57366335835658   -0.32875902200558
