35
 energy: -49.720892127647 gnorm: 0.127228630205 xtb: 6.4.1 (79825abcba525fcdf90b791dcacef51065a7a4e7)
C         3.66430237145153   -1.38911630008753   -2.41550816243473
C         3.08599733541733   -0.16947880666135   -3.11802657411241
N         4.04989784831721    0.96625020224126   -3.03497578894858
C         3.59895256975622    1.65175924127878   -2.02425616918969
C         4.19534009280512    2.98801896499566   -1.71460018074039
C         3.70192025515440    3.85705422593713   -2.87762931520471
N         4.30251612414580    4.84314332065181   -3.46632082951558
N         2.43919995392371    3.58869973579979   -3.37916011245099
C         1.25490516903291    3.00543742278188   -2.71949513924100
C        -0.06212208959069    3.78536719681167   -2.96805205908515
O         0.03717213935499    5.16375170419804   -2.60938403552177
C         0.95586299051810    1.52599137838752   -3.04825749723763
C         1.84434256658444    0.44328107475208   -2.37128326063760
C         0.87457616158082   -0.63868274944914   -1.80277294791157
N        -0.10524420168916   -0.09230531170111   -0.85097164266003
N         2.58257486400095    1.09307181357840   -1.27021921655014
H         4.71549225701896   -1.43550869939803   -2.72393198547203
H         3.06962647214205   -2.30676930415872   -2.47395145759606
H         3.70626555022669   -1.21938407274552   -1.33765022648270
H         2.89279077019053   -0.36914955624591   -4.18081405541518
H         5.26967365141725    2.87445695621352   -1.88066711283530
H         3.86034266853518    3.27603652813728   -0.71620316263213
H         5.25663353654957    5.06513131660347   -3.15554944608970
H         2.22124647343922    4.15930730759055   -4.19940938445946
H         1.50788634078436    3.10607849549508   -1.65533735767980
H        -0.92908916071041    3.50315236815070   -2.36195762181094
H        -0.37717940782441    3.74322323244099   -4.01823399210507
H         0.69456807937752    5.59394240029704   -3.18872314319801
H         1.09307618050675    1.50720895929247   -4.13770229742647
H        -0.11188806204417    1.30901027619187   -2.90950681637530
H         1.48956449765122   -1.49148067500843   -1.51647169431144
H         0.35630670849681   -0.97971537031823   -2.70763439691403
H         0.46853464503669    0.21520188356311   -0.06955389268367
H        -0.75945103806815   -0.77569834303095   -0.46628675337931
H         2.08379665473948    1.54550575647057   -0.50682068953635
