35
 energy: -49.720852849545 gnorm: 0.108264183102 xtb: 6.4.1 (79825abcba525fcdf90b791dcacef51065a7a4e7)
C         3.46835753613989   -1.66828868183821   -2.46369279476632
C         3.02914104338907   -0.31325727894678   -2.99891537247412
N         4.11975595635487    0.70055355810601   -3.09180614620266
C         3.82422918071943    1.59298158047412   -2.19121493044696
C         4.46610992269629    2.93277805169486   -2.01775191192180
C         3.55450817398398    3.99646190727542   -2.64135521749585
N         3.96142494086306    5.22642802992537   -2.60604379398232
N         2.34602263510274    3.73609103403275   -3.26567849790868
C         1.23800729400440    2.89652854396647   -2.77035655582149
C        -0.02978006393216    3.59029217651317   -3.33253010057480
O        -0.24905777132344    4.89040038489803   -2.78473278504383
C         1.23999465115391    1.43602110106045   -3.27353210105277
C         1.89798969567530    0.47549957767844   -2.24183804588833
C         0.90842159641383   -0.53118375770773   -1.57727789944840
N        -0.03547715572438    0.22366947763450   -0.73837760184235
N         2.75131664770579    1.30395863995068   -1.36716918019876
H         4.31712682927816   -1.95057928044285   -3.09786973238592
H         2.63808491783548   -2.38162978852887   -2.43313263995339
H         3.76050300484105   -1.56905902634134   -1.41624247786367
H         2.70125110907103   -0.43128079350813   -4.04067977326882
H         5.44186785134122    2.99989054963549   -2.50566533165979
H         4.65373604272578    3.22583605612966   -0.98291500022707
H         4.96408928859124    5.20932470412858   -2.38116770650650
H         2.11059609444694    4.66121569332702   -3.63259036605899
H         1.13724827646319    2.90740165777428   -1.67660645064075
H        -0.97188692569126    3.07965350924404   -3.10823027867954
H         0.16352942982935    3.62549752584446   -4.41202598364558
H         0.57093550578852    5.40969663090152   -2.88870247338652
H         1.75953450515534    1.46796896062544   -4.24055220882030
H         0.15903191629329    1.29897755826048   -3.41196444219185
H         1.54845365207580   -1.09212650301150   -0.89672990664154
H         0.55865180180958   -1.27374412304806   -2.30525172796046
H        -0.62751300002118   -0.41751535613226   -0.21610171242028
H        -0.65160673639007    0.92258828629156   -1.15657841458473
H         2.41030585741217    1.90617210966258   -0.62064119060913
