35
 energy: -49.716377204499 gnorm: 0.115987999390 xtb: 6.4.1 (79825abcba525fcdf90b791dcacef51065a7a4e7)
C         3.54384311969801   -1.42141547500912   -2.83284606955682
C         3.03392955505917   -0.03789721056601   -3.20881126040681
N         4.03309736508346    1.03291518347610   -2.92437057036154
C         3.76911801475236    1.68706565340559   -1.83019029442300
C         4.24019285881822    3.10014137351614   -1.69432122686188
C         3.73256543430443    3.84464949594855   -2.93502435579697
N         4.27234806087590    4.89915620117541   -3.46066220201063
N         2.43093644869462    3.58933991668327   -3.33325654753440
C         1.33249395186268    2.98292425830699   -2.55634525954866
C         0.02587201806229    3.64898550448408   -3.06006483798294
O        -0.13313455667725    5.01036407703533   -2.66030083198278
C         1.01669035908631    1.52274598631104   -2.94930720974157
C         1.90005704853206    0.45820220903857   -2.23771634022567
C         0.93962965378977   -0.63613536111136   -1.67709072847986
N        -0.21350328142532   -0.08678138626284   -0.94702455360068
N         2.73048852885248    1.05326361532585   -1.17195725645727
H         3.90482669131941   -1.37587189283803   -1.79848910574991
H         4.42400507287144   -1.64766433833212   -3.44380308184357
H         2.75642133911957   -2.17774454855898   -2.84960734482385
H         2.83740040139896   -0.00707236228015   -4.28915404762320
H         5.29080029681964    3.33195186912073   -1.50156484135183
H         3.73214569929286    3.54791007373611   -0.83795373457959
H         5.26328223006218    5.09476790355873   -3.27097009048429
H         2.09533753590569    4.42083316971495   -3.82508777609279
H         1.45189538360390    3.11861383430024   -1.47288250666759
H        -0.77334952604976    3.10759801870989   -2.54356496280780
H        -0.06691138879075    3.68182629679531   -4.15287408966241
H         0.38567035051135    5.60811537003009   -3.23161696334635
H         1.19926938968869    1.37240428847290   -4.02174951424110
H         0.01798792679380    1.28095317868591   -2.56129357150879
H         1.55184338697675   -1.30833498616702   -1.07643660849253
H         0.52897437957585   -1.14654551435598   -2.55716142678041
H         0.00469006740235    0.49156524194670   -0.13937154852668
H        -0.70475154651488   -0.90019506960127   -0.57282085325636
H         2.18368984590568    1.47160969540291   -0.42212311937969
