35
 energy: -49.718563383545 gnorm: 0.129892919919 xtb: 6.4.1 (79825abcba525fcdf90b791dcacef51065a7a4e7)
C         3.58455686668806   -1.44713585086974   -2.92645729751468
C         3.09914065505870   -0.01874610647625   -3.12534986562255
N         4.08728049720680    1.06628040749251   -2.85668818833491
C         3.63755849820212    1.64001693219359   -1.77807568477559
C         4.07638086360283    3.05187804822293   -1.55171750264683
C         3.63564976290671    3.89318423055656   -2.75557885700831
N         4.29539725301214    4.81670703383254   -3.38126541274121
N         2.39333827055699    3.61660038839739   -3.30163136973700
C         1.23828813829812    2.95854839621932   -2.66074627582124
C         0.02179581222378    3.78409806736530   -3.15394600482281
O         0.16454396668265    5.19184468650359   -2.96337221614060
C         1.01834469385614    1.46130043369545   -2.97081869971834
C         1.87117881049260    0.39084271660879   -2.23139602234734
C         0.97662199412518   -0.70293648920021   -1.56979820503250
N        -0.10300934804054   -0.12029524593855   -0.75774691248968
N         2.53284388438509    1.11754066470945   -1.12973075500100
H         4.62323739772619   -1.47354258979482   -3.27677589010809
H         2.98442905906052   -2.08419454745802   -3.58459475130670
H         3.62489059627330   -1.78845827095533   -1.89001151875801
H         2.87835072777024    0.16156267261748   -4.18622448639934
H         5.14792784217094    3.26636496488603   -1.53051443641212
H         3.78320941738919    3.61265141368465   -0.66202220627753
H         5.27247624268986    4.76901408044676   -3.06624224356363
H         2.25293119610573    3.87348333283131   -4.28153064220798
H         1.30868095528661    3.13369770418417   -1.57865226871552
H        -0.94860566807358    3.49802516286204   -2.73548352895759
H        -0.09432470930892    3.50380599296443   -4.20839927739455
H         0.83918567852900    5.53990462721939   -3.57703343967218
H         0.93858068143241    1.26879093435770   -4.04908025536098
H        -0.02132013441331    1.30329395001828   -2.65371325323393
H         1.54927504179472   -1.42721369142306   -0.99106306043963
H         0.60078041119960   -1.23373110652513   -2.45335968312645
H         0.28728781116377   -0.02420731126165    0.17650774976057
H        -0.89853011110151   -0.72856745716312   -0.55738046683580
H         1.95476289073282    1.84030465848098   -0.70583446872227
