35
 energy: -49.723186093202 gnorm: 0.108287185997 xtb: 6.4.1 (79825abcba525fcdf90b791dcacef51065a7a4e7)
C         3.69053089019898   -1.39374462628154   -2.99014884409537
C         3.11757304098610   -0.02012182551801   -3.30695181859327
N         4.17102667950060    0.97954113679433   -2.96520427489755
C         3.77949058026179    1.61153758837565   -1.89650956928827
C         4.19483827406517    3.01078639573587   -1.56979258639885
C         3.60104814650367    3.81174226114941   -2.73478406174003
N         4.24053973165006    4.40012792985590   -3.69629204680671
N         2.23186310553363    3.91560670429427   -2.91521223116030
C         1.16269408276487    3.04297079846698   -2.39243967624492
C        -0.20646061370474    3.64279963954630   -2.80505645933871
O        -0.28227998941101    5.02014963991881   -2.43681149179657
C         1.25348156543820    1.67896052906480   -3.11181798009197
C         1.94591339718715    0.48841032909449   -2.38857525962252
C         0.93497964032097   -0.57566089431799   -1.85936652618749
N        -0.02015698345078    0.17646844805582   -1.03080304076979
N         2.69046468688432    1.05750830351659   -1.24781770893859
H         3.97738276998005   -1.39665904311841   -1.93185531972671
H         4.61072632739989   -1.54197237253860   -3.56496269832053
H         2.94683109099101   -2.17482160549164   -3.16096166819713
H         2.85311848857702    0.19318965817785   -4.35159357819868
H         5.27569293977590    3.16733232551616   -1.61353831400046
H         3.82991727767610    3.31349397227751   -0.58634214581065
H         5.26517570883477    4.35563541999246   -3.76216377148495
H         1.95585878687982    4.34688581061017   -3.80049497744764
H         1.23011457843707    3.04710221350152   -1.29608330963292
H        -0.94324081152397    3.18659277936931   -2.13598408954850
H        -0.43091728061340    3.39310249208386   -3.84965679708478
H         0.56329698389572    5.50468530318417   -2.38120545101328
H         1.71520562860345    1.91085053626839   -4.08089388727011
H         0.24472237478492    1.24971202750021   -3.17946039074716
H         1.45457009814970   -1.36879385354139   -1.32232908685462
H         0.43269268542325   -1.16057724374662   -2.63991849043034
H         0.30129216113440    0.19910157063010   -0.06615039492497
H        -0.89130770201681   -0.35653190091021   -1.03226541268168
H         2.25832934218249    1.46678593912279   -0.42198217769643
