35
 energy: -49.726005691820 gnorm: 0.107277744339 xtb: 6.4.1 (79825abcba525fcdf90b791dcacef51065a7a4e7)
C         3.66360228351706   -1.34506312184075   -2.69246814092866
C         3.01358642738974   -0.06718954376482   -3.20237299631672
N         4.10989055442299    0.94325704637147   -3.14762850997068
C         3.76056442952052    1.58267038580487   -2.06876323997699
C         4.24357495063133    2.93595428395558   -1.65345796142264
C         3.65897948370461    3.92358790477860   -2.67038969281733
N         4.31040152515721    4.93267275861299   -3.15725916154051
N         2.38044857654511    3.74836864773902   -3.17304936351561
C         1.19780683983136    3.02506315835009   -2.66699144336410
C        -0.12387350068667    3.76950983246981   -2.98884860989815
O         0.01275220711408    5.18973820858819   -2.93659228082072
C         0.99038450429369    1.56238650820757   -3.11846071154350
C         1.79625516921748    0.46787998285388   -2.36177081026869
C         0.94513159758294   -0.63251609089051   -1.65536179486097
N        -0.23264499254981   -0.16622258315602   -0.90708735827800
N         2.68831623205348    1.07729915459650   -1.35559374490851
H         3.96820857944199   -1.31582145631375   -1.63954952503697
H         4.57868769854179   -1.43352396273050   -3.28739288329777
H         2.95546433728165   -2.15310418600033   -2.88729616502686
H         2.67164958185476   -0.30728721397259   -4.21831921856649
H         5.32975446934296    2.96436774884224   -1.77209130299491
H         3.83386523450156    3.21073082273765   -0.67949194143851
H         5.27973603197012    5.06622754485125   -2.84301197994579
H         2.30007769651546    4.38153417732768   -3.97214104396016
H         1.31414645182539    2.96258302070426   -1.57652310321204
H        -0.86868055323950    3.41966780866760   -2.26669862166993
H        -0.44877370823439    3.43242365435134   -3.98118528995118
H         0.69410399419109    5.42705772389684   -2.27909212960272
H         1.30657935663238    1.48973340207264   -4.16765685453878
H        -0.07258717539277    1.33923943733284   -2.95499370831751
H         1.67785365518800   -1.21593371802630   -1.09841869315076
H         0.63616212846087   -1.27437038312526   -2.48977275243716
H         0.00408051193951    0.14679952605889    0.03119550444085
H        -0.80799758660108   -0.99744406554325   -0.76205175803955
H         2.30289155886573    1.71885913645890   -0.66559222033723
