35
 energy: -49.721036097181 gnorm: 0.116068516633 xtb: 6.4.1 (79825abcba525fcdf90b791dcacef51065a7a4e7)
C         3.60870992637846   -1.38561620865517   -2.96442867342795
C         3.08730440978478    0.02301830803277   -3.20808728023776
N         4.09813977773606    1.09370947835721   -2.96784932736296
C         3.72402661103509    1.66460514164048   -1.85927099520135
C         4.15373359524464    3.07097424077777   -1.58608089232361
C         3.63532399676066    3.82414895055709   -2.81705674863186
N         4.34696304923132    4.59920371123866   -3.57369722066368
N         2.29462922934843    3.82510704328783   -3.16425480491236
C         1.24176241190918    3.05825581530434   -2.47048420352794
C        -0.04495393922381    3.86895870496535   -2.77339294055227
O         0.06030982905413    5.24380981551669   -2.40305535967957
C         0.99172098856661    1.59132980738253   -2.88506700373749
C         1.89094612144834    0.47024621129243   -2.28965336430443
C         1.14445092815645   -0.72547865535421   -1.62086077421866
N        -0.25366955294361   -0.33403157897317   -1.38309979224942
N         2.62988185348537    1.13561260005591   -1.19840705227093
H         4.20888746617708   -1.49580739862774   -2.05342785141931
H         4.17332067660890   -1.70424220198852   -3.84694454085728
H         2.80680960293217   -2.12634368042125   -2.98945558050237
H         2.72897999771872    0.10892400593664   -4.24294874402720
H         5.24494553975337    3.11752043649238   -1.62799862971434
H         3.78613235383176    3.51268206869198   -0.65778270301297
H         5.34817485060181    4.58351515900531   -3.34233955875983
H         1.98181588422242    3.96197425035061   -4.12826765856594
H         1.39473153625013    3.09462368674450   -1.38336060691481
H        -0.83928325973490    3.47632772934803   -2.13034593864922
H        -0.32939672380993    3.76964509417018   -3.82845144144598
H         0.74428110461583    5.76003067384180   -2.87056640686695
H         1.20725156412935    1.56299504956720   -3.96154920288721
H        -0.05120165427878    1.27827182379892   -2.74108116138572
H         1.76967673897526   -0.85583631004051   -0.73794348733257
H         1.22604692639339   -1.64837950827462   -2.20846337121119
H        -0.43015612242913   -0.42710166999529   -0.38580997054980
H        -0.92450756575284   -0.93026575371483   -1.87041514647496
H         2.04855278529051    1.64738070823750   -0.53779869022150
