35
 energy: -49.715518696067 gnorm: 0.121180068259 xtb: 6.4.1 (79825abcba525fcdf90b791dcacef51065a7a4e7)
C         3.49524726842253   -1.46852765637863   -2.67561888672167
C         3.07440842107030   -0.09390238687953   -3.17440187985872
N         4.04009555545493    1.03188584800600   -3.01337020521570
C         3.82881844145184    1.66993668461602   -1.89843454999306
C         4.29935072920972    3.08031189085659   -1.73535165242216
C         3.51188443354260    3.93159688961137   -2.73861275572829
N         3.97157125551846    5.06615496969870   -3.16418387874884
N         2.33507026627839    3.48983477303965   -3.31995987314185
C         1.14714756049898    2.85751566283921   -2.71422134720647
C        -0.04331073401280    3.66153246453845   -3.29817157350107
O         0.01712022275846    5.06255830536919   -3.02999131929581
C         1.03013862153374    1.37613342556081   -3.13622504455721
C         1.87819283404071    0.39488773210503   -2.27720663259587
C         1.00615066252704   -0.60761532915098   -1.45938842764373
N         0.12464663795397    0.18769476007686   -0.59051876350796
N         2.71777509916182    1.10872822277675   -1.29481653290055
H         4.03008955725815   -2.14534038768550   -3.35248366637757
H         2.64984547347480   -2.13531861232617   -2.47605009091936
H         4.15294754639854   -1.36567562984268   -1.81005579243243
H         2.90216549468814   -0.14834483740236   -4.25795289777866
H         5.34568056180048    3.34435573262481   -1.90896574140889
H         4.12146026141536    3.36925855142318   -0.69764321800811
H         4.88004545746146    5.28459099736245   -2.73621438209181
H         2.19695269232431    4.01319017932896   -4.18767425645143
H         1.24725341771120    3.04687289265342   -1.63687157027039
H        -1.01638686045481    3.36732800990274   -2.89173070037609
H        -0.15965835285887    3.46557675355016   -4.37147671199231
H         0.91858428792974    5.31337893815655   -3.30805392163665
H         1.29989496821310    1.20257603627077   -4.18654859148804
H        -0.01151067205891    1.07786363297368   -2.95615072495805
H         1.70398376668556   -1.22349902859771   -0.89267898867834
H         0.33354539277002   -1.22695565506570   -2.06577148667719
H         0.45487735267986    0.12377462467778    0.36930331901359
H        -0.84283538499099   -0.11663623611610   -0.71033639772726
H         2.31869216777468    1.55244133382903   -0.47013176974726
