35
 energy: -49.724307117604 gnorm: 0.109675856072 xtb: 6.4.1 (79825abcba525fcdf90b791dcacef51065a7a4e7)
C         3.59392242375524   -1.50642948454207   -2.75385814826210
C         3.07961434463715   -0.14857134765403   -3.20904261885780
N         4.08321562270660    0.95040171522788   -3.10452149131329
C         3.74382245807052    1.57205592268482   -2.01219061371164
C         4.14226081004718    2.95028237326588   -1.58923237326474
C         3.57409397278681    3.90623404019464   -2.64500936622270
N         4.13533508944660    4.99335236319199   -3.07259209188441
N         2.41169858489023    3.64630391975154   -3.35160908904848
C         1.25943679448545    2.98015485401049   -2.71407856025172
C        -0.02417987977804    3.75199570282736   -3.11560286826441
O         0.14048473719976    5.14522868670772   -2.85058706333823
C         1.03278246321697    1.48777348358074   -3.04225103717831
C         1.84956874157884    0.35033756575310   -2.36471774947613
C         0.95461111834935   -0.67021759157415   -1.59542291331569
N         0.13123635591208   -0.02360442010479   -0.56176563491340
N         2.64779875297172    1.05702798150044   -1.34345654126735
H         4.46839065938227   -1.75051960046904   -3.36867763212584
H         2.79732024813224   -2.22700614834712   -2.96678142977944
H         3.86395220476614   -1.65582953874567   -1.70642738826187
H         2.81014801189422   -0.24639982416855   -4.26948209924706
H         5.23379756631762    2.98761365082541   -1.54655887800793
H         3.75502910858536    3.29142285164771   -0.62712594048108
H         5.07824308302927    5.14980462469424   -2.69490866114202
H         2.32803107015812    4.41971397981290   -4.01549328781429
H         1.39879084235166    3.19409807691818   -1.64573000663291
H        -0.89492915561522    3.51994278314038   -2.49385152509699
H        -0.16994145174238    3.60357296123318   -4.19293456474999
H         0.42808003102117    5.68001122786542   -3.61489318022270
H         1.12026049379508    1.41409141129515   -4.13449128001309
H        -0.03186692287490    1.34541634968006   -2.81272761456732
H         1.58265234761249   -1.30811862510381   -0.97406163291193
H         0.42197859480510   -1.22253054122687   -2.37959999749733
H        -0.46254472080157   -0.71501695602159   -0.11035753259964
H        -0.53793749032771    0.60506976629367   -1.00894592788259
H         2.13826872124141    1.68183405448978   -0.72196639105624
