35
 energy: -49.724737595293 gnorm: 0.115710625814 xtb: 6.4.1 (79825abcba525fcdf90b791dcacef51065a7a4e7)
C         3.59268502768760   -1.47842692592374   -2.40244986048008
C         2.92408157029542   -0.27568284990696   -3.05195778861218
N         3.90090919507309    0.82932837115576   -3.27699112698578
C         3.80387652076302    1.66316178567187   -2.28193589436123
C         4.51364782291406    2.97147666779320   -2.13465452655417
C         3.77811052583421    3.90493334066372   -3.10365696254283
N         4.40158745144832    4.80898295251571   -3.79185434018995
N         2.47756688533724    3.59283430137518   -3.46308745779880
C         1.36322522521950    3.07857360220086   -2.64352318717216
C         0.16413849108079    4.01560268773180   -2.94151534247414
O        -1.03717129022956    3.80208847240606   -2.20008939357285
C         1.12983761005369    1.59524240748898   -3.00619430418916
C         1.89903680926813    0.53080466799361   -2.17237382307611
C         0.90272269340909   -0.24850033044581   -1.25895252328621
N        -0.22554711873863    0.61456990518307   -0.87604394735321
N         2.90609577617745    1.20901383388259   -1.33248006629947
H         3.98820119010547   -1.12944225385190   -1.44117240441543
H         4.38151709565472   -1.99570730605753   -2.95860366449349
H         2.82097159012454   -2.19101091024387   -2.10407073357126
H         2.53720025266663   -0.51439108157880   -4.05198561207425
H         5.56817138091780    2.81657820621593   -2.37683972387040
H         4.40372192022610    3.47527821783465   -1.17232698624373
H         5.41392651686632    4.96955305816814   -3.71712539446300
H         2.14952045749399    4.27186795616159   -4.15388731687868
H         1.68986092457735    3.16756456262640   -1.59855925285174
H         0.06349681759952    4.00634838800445   -4.03165900489945
H         0.42382733436735    5.06028586590099   -2.72910515370739
H        -1.36222814182698    2.88750308225384   -2.30371789097962
H         1.49084162270236    1.44385418597164   -4.03226833998927
H         0.06126827005680    1.35128756082991   -2.93498704178846
H         1.43426343973605   -0.85411402632914   -0.52537236934068
H         0.41304893206283   -1.02895470660149   -1.85459611536881
H         0.10480230975364    1.38639665407581   -0.30198013232612
H        -0.88744389151326    0.03892480834875   -0.35305210109066
H         2.66621485543093    1.82555781185548   -0.55879786375490
