35
 energy: -49.719813586469 gnorm: 0.112601793672 xtb: 6.4.1 (79825abcba525fcdf90b791dcacef51065a7a4e7)
C         3.47493167515668   -1.62082739526913   -2.31401119499339
C         2.93976817890545   -0.33777537276572   -2.93276964089599
N         4.05570966801690    0.64474802727087   -3.05607572979363
C         3.74411489217166    1.61955309407816   -2.25140671577412
C         4.40365760931783    2.96190786524680   -2.26696432010519
C         3.63217896459760    3.91938444078888   -3.18314199125751
N         4.19583238032992    4.88937914117558   -3.83202559455474
N         2.25050667429964    3.82527405535160   -3.19475113957633
C         1.10236587576528    2.99896929090545   -2.77415617206712
C        -0.17866207242470    3.69478619779541   -3.30277519527281
O        -0.49609677078621    4.82172312869754   -2.48564954492245
C         1.22967203625517    1.49951848616853   -3.12302862115728
C         1.86942872729899    0.48852150039355   -2.12877100004962
C         0.81003161681679   -0.37810661353958   -1.37981834158844
N         0.49002479093640    0.27541162737037   -0.10114264559550
N         2.74941209302239    1.36036239115471   -1.32560244540815
H         3.74198451287148   -1.43006872383402   -1.26779343564128
H         4.35569147256229   -1.89194004024559   -2.90553651296884
H         2.83977064503361   -2.50785661846402   -2.35980742998870
H         2.63718023758407   -0.52507429559209   -3.97203577217111
H         5.44504047021681    3.00839315222564   -2.59564046548747
H         4.48488868380650    3.39130730226502   -1.26646861889453
H         5.22269898028809    4.90022360164918   -3.79171491748643
H         1.97290581362009    4.59903273376029   -3.80314318607087
H         1.03899354245339    3.17036935634221   -1.69102835520103
H        -1.03077741649440    3.01657993485328   -3.19068904955604
H        -0.11127369171665    3.91980858257235   -4.37456951525986
H         0.28724909679987    5.40415846983402   -2.48328592466710
H         1.70461646408144    1.41519880442067   -4.10963300365266
H         0.25854573286639    1.08096859377272   -3.41993699034502
H         1.19852607585376   -1.38350772260409   -1.21955593731929
H        -0.09180302232295   -0.37581449350906   -2.00461411080475
H        -0.17091924243066   -0.38575420606760    0.29936861400227
H         1.27630144838477    0.36551549647319    0.54433810479036
H         2.28824395431636    2.08219889899061   -0.77557562401761
