35
 energy: -49.714771175404 gnorm: 0.107021441850 xtb: 6.4.1 (79825abcba525fcdf90b791dcacef51065a7a4e7)
C         3.34768968388256   -1.54312481226891   -2.26877336971276
C         2.79097767607483   -0.27486441781547   -2.89890969299498
N         3.97615048674251    0.55707037703714   -3.25825901422777
C         3.92655617153596    1.51390972085162   -2.37688094595710
C         4.73068824704324    2.74528472742927   -2.64935500196529
C         3.88941004543641    3.97816332673803   -3.00089944461222
N         4.35610013091069    5.00078266403891   -3.64595359197444
N         2.52420182397890    4.04947992878883   -2.77924594822644
C         1.44446579935694    3.16831896361790   -2.29382608058732
C         0.12621372069696    3.93610449099662   -2.57194242433586
O        -1.07714660327879    3.19447072980134   -2.37107117428028
C         1.37279577357501    1.81956398824057   -3.04348934529799
C         1.88743301946592    0.71558307547373   -2.07584973407785
C         0.76017230317158    0.14751211755444   -1.15885721479276
N        -0.53372930134474    0.30845866248867   -1.84033857374611
N         2.99692219677268    1.37765202116799   -1.36152805031818
H         3.67115590104508   -1.39193522819346   -1.23205305844538
H         4.17586924206696   -1.71878560381358   -2.96332646082429
H         2.67576163206109   -2.40377887576319   -2.25715665048701
H         2.26501667332390   -0.59405886688190   -3.80896154253462
H         5.39165686041131    2.66493337565395   -3.51614868394687
H         5.42409509143576    2.86961759938531   -1.81526731026054
H         5.38336734510985    4.97246794100014   -3.65681236446679
H         2.14632396224077    4.99354212719398   -2.88815179739848
H         1.44306335976838    3.08817177173665   -1.19831964258619
H         0.21332658685231    4.21384488735602   -3.62735666747043
H         0.11616274678887    4.82941489515039   -1.93490644658427
H        -0.80459502721643    2.30850109719023   -2.06506347743932
H         2.09266240076997    1.89446793983948   -3.86947461894550
H         0.38607232017125    1.58739861484506   -3.46645618972655
H         0.72682314174382    0.79463587472080   -0.28275102619268
H         1.09605601222840   -0.85438358379042   -0.86378457954314
H        -1.27150651838537    0.14303656095217   -1.16010563696952
H        -0.61759046240832   -0.37131260506287   -2.59788290790613
H         2.88530637573773    2.20707847455262   -0.78200483189423
