35
 energy: -49.722309367023 gnorm: 0.115197669909 xtb: 6.4.1 (79825abcba525fcdf90b791dcacef51065a7a4e7)
C         3.41891054098236   -1.49149441405901   -2.24086513059712
C         2.83048976232455   -0.34283544102260   -3.04698421625962
N         3.95625090632658    0.58957000387641   -3.34558749853298
C         3.94901463465825    1.49121893858996   -2.40654265895789
C         4.67820493484833    2.79697489387446   -2.42746540449940
C         3.72862896187222    3.79522023598737   -3.10061757111428
N         4.07669635727566    5.03544831706470   -3.24319453304628
N         2.44617680071095    3.60292390254320   -3.58677431866828
C         1.33714310590000    2.99371549686401   -2.82729005595838
C         0.03294153496738    3.79573162478818   -3.07317664004980
O        -0.93275667293406    3.17773913954676   -2.22231929634851
C         1.14436665070591    1.50261743720789   -3.18188186138067
C         1.90116491335077    0.58424322864454   -2.17998523302114
C         0.92662243555364    0.00722867805180   -1.10685072342934
N         0.38426671576798    1.20578890403429   -0.44821149934771
N         2.96513582596435    1.30393426701708   -1.45227126851379
H         3.80920596974061   -1.11964379587963   -1.28604877413519
H         4.31640269744061   -1.79907528683749   -2.78771420940821
H         2.60909245670952   -2.21284954660292   -2.11362870005681
H         2.50867714797362   -0.75823212998728   -4.01165857775322
H         5.58264753123134    2.78749455104480   -3.04111092681266
H         4.83768421850125    3.14550791156926   -1.40518116227717
H         5.03630604029329    5.17279901446851   -2.90190051487797
H         2.14920742393707    4.38115438200168   -4.18013095664016
H         1.63630236575928    3.14735030026051   -1.78160369447927
H        -0.22617638789829    3.72053599189337   -4.13422852798148
H         0.19118017443519    4.85185564704455   -2.82122047563416
H        -1.80767816450147    3.55661048318889   -2.43169013869747
H         1.46070063954605    1.39206987717320   -4.22772230786191
H         0.05185218849017    1.40986453903518   -3.11681333978163
H         1.37047874967074   -0.56767769972206   -0.29449761680878
H         0.21293951404482   -0.70374727309763   -1.54142013513166
H        -0.09359713884669    1.78875099556849   -1.13099834317571
H        -0.29623013026523    0.87202493095615    0.23627424815531
H         2.67818457581282    1.90384049429449   -0.68154112581206
