35
 energy: -49.724972464963 gnorm: 0.106385378921 xtb: 6.4.1 (79825abcba525fcdf90b791dcacef51065a7a4e7)
C         3.74864095185328   -1.43832518980193   -2.62046503469080
C         3.15911640863644   -0.13906018852618   -3.14947909237212
N         4.11298228844514    0.98104096153146   -2.90169809186226
C         3.75822974876654    1.62894699956128   -1.82969204539256
C         4.13826742379943    3.05957134102104   -1.61512150215161
C         3.66026774812772    3.79638905867140   -2.87207752343607
N         4.40756050543408    4.35363159438889   -3.77245483215724
N         2.28902975240052    3.92498215482379   -3.01761209161241
C         1.14749060214488    3.07397693710852   -2.62955825554888
C        -0.11825673933122    3.83177274288465   -3.10732518972027
O        -0.31459489142771    5.12051653593552   -2.52505652447250
C         1.19683591834131    1.60209089444339   -3.09580756819685
C         1.91231463767208    0.42476940824743   -2.37334206867949
C         0.86290541510615   -0.57587886684576   -1.79737315270985
N         0.03682267484343    0.05984672484140   -0.75913312140095
N         2.64203308705764    1.05023872147660   -1.25269212723624
H         4.67433290532681   -1.61961832088510   -3.17948643398757
H         3.03784465255483   -2.26529398372876   -2.72063165156769
H         3.99299564358917   -1.33664071711170   -1.56107900807117
H         3.09400222812947   -0.31812378660674   -4.23133439956878
H         5.21488719636876    3.10775442983536   -1.43281545319534
H         3.52290126392202    3.39510223189619   -0.77803273352691
H         5.42147966736960    4.30846523234495   -3.61082086457947
H         2.11489047675420    4.25911756076739   -3.96836691525801
H         1.00211817619301    3.11516829755669   -1.54156461519051
H        -0.97992942448241    3.20779747377501   -2.84886301442039
H        -0.06478019188397    3.89998370034991   -4.20112906114869
H         0.54501983372002    5.54845640246560   -2.70054801500022
H         1.59916344042395    1.59220086207059   -4.11762217333547
H         0.15120920707993    1.26700017123147   -3.12416202341401
H         1.33610522985304   -1.49574545011915   -1.45477886267389
H         0.22812147933353   -0.91705205258467   -2.62461616398671
H         0.22175892619420   -0.30766016938002    0.17099258209987
H        -0.97267784513662    0.03473424042672   -0.91168858490240
H         1.95106078901203    1.50539132616395   -0.65969385204479
