35
 energy: -49.714155024148 gnorm: 0.108333311741 xtb: 6.4.1 (79825abcba525fcdf90b791dcacef51065a7a4e7)
C         3.57433760083298   -1.32771328151690   -2.18320729248117
C         2.93339684330869   -0.24189980797041   -3.03508082746584
N         4.05024120004690    0.73105011291364   -3.21371217373397
C         3.89523548612319    1.63246614976759   -2.28729391466072
C         4.55573380682248    2.97145991204959   -2.19789240456305
C         3.72149722576561    3.79372926187304   -3.18746031950499
N         4.05828702419612    4.91667201487278   -3.73992482419268
N         2.46398746924539    3.35645351151728   -3.56886429680180
C         1.25611093119073    2.90807145201291   -2.84921522167537
C         0.06007421619769    3.83063231240721   -3.19994230257025
O        -0.40568304700332    4.36734531116741   -1.96161468249749
C         0.88909794779026    1.41830036794577   -3.02853383477250
C         1.88231239446801    0.56576367366756   -2.18790431405842
C         0.97851251334808   -0.30507861801319   -1.26104074263660
N        -0.20113543588853    0.38942678555075   -0.72197215425298
N         2.86128382794940    1.35252751222336   -1.41190523760490
H         4.18565823518361   -0.91808445252859   -1.37033030804922
H         4.18990125898445   -1.91480614432964   -2.87280532158298
H         2.83397714573910   -2.00474337508104   -1.75211064264131
H         2.57581139375401   -0.51646846021026   -4.03680890058350
H         5.48655854418010    2.95258844218978   -2.77049727172448
H         4.58643584740004    3.47758826348795   -1.23100798428372
H         5.02450605129018    5.25079484089680   -3.63513793098360
H         2.21315726644718    3.88648356173980   -4.40675329068841
H         1.34421216051407    3.07308284687167   -1.76682466557470
H        -0.76293363963451    3.28593969575181   -3.67385750485523
H         0.43474540756907    4.55383799102518   -3.93513913416200
H         0.05858943915153    5.16963974043316   -1.65560493107800
H         0.99573076261122    1.06372871614286   -4.06244805254592
H        -0.10072358782568    1.25919530585685   -2.57979806056060
H         1.58725779388398   -0.63406697285022   -0.41923362901600
H         0.64339914299199   -1.19576456168736   -1.80698789744367
H        -0.96800054325343   -0.27366490391185   -0.64058506579517
H        -0.11023944754334    0.86111603823238    0.17927268075802
H         2.39151340532682    1.96638900797426   -0.74952822590571
