35
 energy: -49.723797965374 gnorm: 0.122932361578 xtb: 6.4.1 (79825abcba525fcdf90b791dcacef51065a7a4e7)
C         3.67114696832651   -1.25169484174575   -2.81350304539195
C         2.95738227657530    0.04240777117307   -3.17588796111734
N         3.96220650216670    1.11437870607861   -2.91687330405430
C         3.67757945286346    1.68543375552799   -1.78209931866871
C         4.04187242985761    3.10855751796639   -1.50073775400139
C         3.63250446319791    3.85758285673780   -2.77459061419040
N         4.37840584755467    4.68965717032373   -3.43104188166605
N         2.46397843696093    3.36582428963851   -3.33202248540056
C         1.22632152746946    2.91733235396896   -2.66496375482685
C         0.09240080510871    3.74543893653752   -3.32306340008078
O         0.32055043407038    5.06752517222197   -2.83471751571700
C         0.82857265151061    1.45063652305765   -2.94221946696006
C         1.77658178968766    0.45081986800975   -2.22000273236189
C         0.98281870836202   -0.72731645488237   -1.57484265527490
N        -0.19333903683280   -0.17164932443328   -0.88753706652595
N         2.53568037393610    1.18130896197419   -1.18573392840102
H         4.63188964631540   -1.24763547577487   -3.34192968113823
H         2.98704929869380   -2.06946046930579   -3.06332665654981
H         3.93802092673038   -1.23104161199515   -1.75487213771485
H         2.73309533899901    0.13969912258951   -4.24684275564904
H         5.13417173801387    3.14591983090271   -1.48835121651847
H         3.60145636042461    3.40891885475495   -0.54795721837164
H         5.27669604588891    4.89049352017612   -2.97394556286664
H         2.38168626689648    3.64672053816535   -4.31193620366016
H         1.32060015058466    3.18867765882602   -1.60475473859819
H        -0.79839696228162    3.33521561670825   -2.83641797399035
H         0.06572081316909    3.69709646182904   -4.41890577794817
H         0.98563588528130    5.49891683047108   -3.40430494718994
H         0.77465130749257    1.34492507374983   -4.03400139669441
H        -0.19912297910896    1.46528084597698   -2.55485386965460
H         1.72056681891769   -1.22946144340761   -0.94952554004227
H         0.58296629430475   -1.31039925353709   -2.41377841448811
H         0.11279276450498    0.28578286906363   -0.03229695564160
H        -0.80986787054216   -0.91176883859386   -0.54825785061046
H         2.04366008187959    1.76632933695268   -0.51348347465951
