35
 energy: -49.722916744399 gnorm: 0.112904809738 xtb: 6.4.1 (79825abcba525fcdf90b791dcacef51065a7a4e7)
C         3.70888882446431   -1.45732837530196   -2.68667507896245
C         2.91362034264683   -0.26023841802003   -3.18668318014157
N         3.89854394368842    0.85423785467208   -3.30394413531790
C         3.73556102946984    1.61094843028725   -2.25720916918008
C         4.48527640731491    2.85786516220161   -1.91039444482180
C         3.63810034354593    3.94610507506969   -2.58072928490483
N         4.07358166382303    5.12631720820246   -2.89233826218052
N         2.47367555718726    3.61386100180935   -3.25284433399882
C         1.27959502810607    2.91739169428791   -2.73611504581781
C         0.06050021627349    3.66347235624923   -3.33761592942228
O        -0.06771715414141    5.01346781144377   -2.89094095702920
C         1.05073455480640    1.43663681224753   -3.11195992894279
C         1.81723427193577    0.38415003447907   -2.26066595518549
C         0.84546222673038   -0.53426697024700   -1.45663497811796
N        -0.08223619170617    0.27312274910842   -0.64917015283465
N         2.76107445548819    1.12743997956174   -1.40262009513079
H         4.58552235701562   -1.59443523216969   -3.33087461206421
H         3.05687295896512   -2.33700538236917   -2.67304607091154
H         4.15332619846392   -1.29264945569267   -1.70295564041661
H         2.39451221093286   -0.44869289347876   -4.13627576259366
H         5.46466964874906    2.71299730871559   -2.37350277248577
H         4.47326108295384    3.01324170926531   -0.82979842449152
H         5.01251404809965    5.31755944357406   -2.52081443934932
H         2.17473373445925    4.45890996218882   -3.74521781795203
H         1.20597250497301    3.11182112728880   -1.65753412868253
H        -0.83688197476600    3.15449716303900   -2.97117760117100
H        -0.10375036758667    3.73174966785436   -4.42033439420235
H        -0.37115449938221    5.03963124566263   -1.96352060362184
H         1.37704295908023    1.25477563547176   -4.14468425753783
H        -0.02926750081320    1.25575214831239   -3.02651307326521
H         1.53377750313735   -1.15817078965265   -0.88706544314846
H         0.21544099952916   -1.17841785719011   -2.08259310770861
H         0.29041603463092    0.73722820533470    0.17553159733382
H        -0.87254806452166   -0.31537675884187   -0.38071055529068
H         2.44477129924395    1.85684766356386   -0.76687625774458
