35
 energy: -49.720517981441 gnorm: 0.114608907112 xtb: 6.4.1 (79825abcba525fcdf90b791dcacef51065a7a4e7)
C         3.58177003454451   -1.40126350252961   -2.38371929548360
C         3.10900603032561   -0.11048511258104   -3.03630629344504
N         4.19000018420664    0.91760976827676   -3.01747661059268
C         3.82804916947171    1.68801617080155   -2.03244165765588
C         4.30768543921434    3.10445745790773   -2.00419169107601
C         3.65200764389393    3.74680030141540   -3.23252571953573
N         4.21220045379724    4.11814403581421   -4.34064694619283
N         2.28257567076178    3.95232321747666   -3.21187998593922
C         1.26878931434119    3.06117725965538   -2.61522006108368
C        -0.10347587694646    3.74463548297019   -2.84846867495045
O        -0.26678154148783    4.87214994795416   -1.98795234989034
C         1.18960668528820    1.57709268479405   -3.03652112948932
C         1.94404867932626    0.51621101653717   -2.18487623675246
C         0.93611720194483   -0.51070269365650   -1.58170221012791
N        -0.20603626936747    0.20132469246765   -0.98756046076845
N         2.80207661936615    1.23526415877603   -1.22242750573838
H         3.90737847792190   -1.23824969486327   -1.34946433661065
H         4.41485058692611   -1.84201083392236   -2.94126809468914
H         2.82928240265568   -2.19242081436958   -2.39714083984226
H         2.88451128096217   -0.27290530094426   -4.09929086593898
H         5.39574587501592    3.20183422778471   -2.04037707717255
H         3.93820303495234    3.69659166944504   -1.16464786876648
H         5.20459539849791    3.86735927434770   -4.43260802809025
H         1.94298305549015    4.30872526852220   -4.10829508629440
H         1.41043534633435    3.04302776439945   -1.52610717471971
H        -0.91725892138596    3.11844919101020   -2.46863256053500
H        -0.37534219346585    4.16237121050358   -3.82596797689631
H         0.60963997859987    5.14545015550615   -1.65620006892185
H         1.37753485154175    1.53284348997984   -4.11762945070259
H         0.11016599770607    1.40789499986148   -2.92424994203313
H         1.49402421063776   -1.03269817342552   -0.80471839628622
H         0.60056025836392   -1.04973858323084   -2.47642147213267
H        -1.12862757134101   -0.17705653767955   -1.18768409520462
H        -0.15840723077342    0.36666551701937    0.01911176420005
H         2.44328345176986    1.89209247558091   -0.53242931723618
