35
 energy: -49.726426634488 gnorm: 0.119014401066 xtb: 6.4.1 (79825abcba525fcdf90b791dcacef51065a7a4e7)
C         3.72742540214950   -1.34697377384941   -2.87577332448471
C         2.98857284544364   -0.04946535735259   -3.16912160836399
N         3.91871310890612    1.10292180592944   -2.98822135005402
C         3.55386526022740    1.67781870081321   -1.87862322274149
C         3.94295391700645    3.08363856419178   -1.54781295545172
C         3.57107767970258    3.87319833154584   -2.80861651348854
N         4.20628456418405    4.83479187945805   -3.40148652942206
N         2.46094025943453    3.40781288511038   -3.49346769565966
C         1.28782738050979    2.89853019282313   -2.75702741766194
C         0.14125661728137    3.85236030457559   -3.18154528464085
O         0.35934398730267    5.21632985891859   -2.82033772585436
C         0.90940225288140    1.42354012439393   -3.01677776392726
C         1.78749509978576    0.39089260714053   -2.25353224904131
C         0.85164951741511   -0.68391704641917   -1.61849384591425
N         0.08431203562948   -0.08621721251591   -0.51465959288495
N         2.56992737148412    1.01424007645192   -1.16780917746551
H         4.54377849208355   -1.45996848384247   -3.59901429405331
H         3.03453415817764   -2.17633092595756   -3.05243829926692
H         4.06045116774812   -1.45660063564148   -1.84164400718140
H         2.72858611933242    0.02935274408595   -4.23350359228174
H         5.01195953224960    3.20420111444263   -1.35452872819706
H         3.41567142668303    3.56306985196203   -0.72071392849106
H         5.10483702565730    5.09142105629409   -2.97376874955935
H         2.34724567030763    3.87278855537189   -4.39722471853862
H         1.31986078235141    2.96652280863646   -1.66116668368559
H        -0.81154634208196    3.62483592294064   -2.69264164893037
H        -0.19236003193914    3.69919785246456   -4.21554746701057
H         1.19630423874479    5.49129288216793   -3.24076623659897
H         0.88715171420540    1.17883783868079   -4.08714961613761
H        -0.02235174904675    1.33747843959585   -2.44157975957020
H         1.43058379993455   -1.58246554169602   -1.40662349236815
H         0.24585977076822   -0.97992580825644   -2.48398694204583
H         0.71756975579220    0.17942139795048    0.23555192663006
H        -0.64545759922873   -0.68573633701309   -0.12606188270992
H         2.00621359357986    1.47151405566875   -0.45410002495367
