35
 energy: -49.711956539798 gnorm: 0.128740052158 xtb: 6.4.1 (79825abcba525fcdf90b791dcacef51065a7a4e7)
C         3.57440342623670   -1.48822302785537   -2.54355717186293
C         3.06935363216478   -0.16982297640828   -3.11121064312242
N         4.10373966774799    0.89656377707230   -2.97429157119909
C         3.70769531652570    1.60287804990113   -1.95493028047421
C         4.31550921479932    2.94928847537935   -1.72063098441100
C         3.62053849018043    3.90847412899903   -2.69443833058860
N         4.15264867585029    4.96078279734664   -3.23216505949672
N         2.41294926300577    3.66720273067381   -3.32809929342903
C         1.24084806882339    2.93055465427173   -2.81679177215676
C         0.00055905342970    3.75223774001026   -3.25400100613196
O         0.18783643209300    4.98736742240644   -2.56275009517692
C         1.14454511418576    1.44748143530880   -3.23808872001784
C         1.86600107728715    0.43762887630617   -2.30019170801058
C         0.88462173203780   -0.58661222327923   -1.65048306414265
N        -0.13609705476344    0.26426527918307   -1.01910154563326
N         2.62493647530832    1.12654826603108   -1.23766449053074
H         4.56630887824807   -1.59760491228875   -2.99791040857472
H         3.07955113334938   -2.36243070440695   -2.97947485681297
H         3.51256538585885   -1.61765441511378   -1.46107334360738
H         2.79215092057703   -0.30629515795683   -4.16536832822523
H         5.37153646989531    2.75865199213883   -1.92831175526898
H         4.20328697244749    3.38748529631866   -0.72696921693398
H         5.09626194921915    5.08064031104682   -2.84303045916990
H         2.24386213857171    4.40362620613629   -4.01729854169509
H         1.10909083644050    2.88095846365186   -1.72741574056817
H        -0.93403459662374    3.22314268200628   -3.04134935321370
H         0.08926217945386    3.91241194832794   -4.33584910762103
H        -0.61812326944248    5.29535187137146   -2.10619582633278
H         1.59934010551343    1.46196192547864   -4.23759962411126
H         0.07115667834761    1.23109991115890   -3.32435097721598
H         1.31536938097190   -1.24551312971733   -0.89699158081640
H         0.45279083340011   -1.20456521163396   -2.44756329349372
H         0.11611570133450    0.45773833164229   -0.05299935405440
H        -0.90856865716607   -0.33052497524723   -0.71495147572243
H         2.20468597545642    1.61693318695065   -0.45079371216186
