35
 energy: -49.720484617150 gnorm: 0.116394279915 xtb: 6.4.1 (79825abcba525fcdf90b791dcacef51065a7a4e7)
C         3.79693005692387   -1.30232721504488   -2.81490013105532
C         3.07342145224591    0.00704558294798   -3.09340077390863
N         4.04553514629263    1.11092977337163   -2.84376772447576
C         3.57728831955505    1.74001040472697   -1.80461860422489
C         4.12328352612363    3.10107104923505   -1.51041103234111
C         3.69179719776081    3.76268145604468   -2.82472203611760
N         4.35686567517169    4.41921061059461   -3.72266312754954
N         2.37853835414682    3.62860827229901   -3.24351247839661
C         1.17863221712805    2.96988303548756   -2.69195715094542
C        -0.04321811416449    3.81536921872497   -3.13565377504759
O         0.01136949503566    5.14532088306594   -2.61922883713606
C         1.04245428416841    1.49048614259451   -3.11517331902889
C         1.81631402970236    0.44888272770196   -2.25717851151246
C         0.86028145350499   -0.68038538249541   -1.76215145910141
N         0.10129165271396   -0.15299209789867   -0.61747125245239
N         2.55670190048539    1.07820556092968   -1.14572203328152
H         4.72054939987019   -1.46381672005793   -3.38334197075658
H         3.10864890028977   -2.14975393730550   -2.90021764111721
H         4.09074317751410   -1.27253820426588   -1.76364653092005
H         2.70244188016776    0.03648350996872   -4.12694902370458
H         5.21167378473872    3.15957228952421   -1.42885501176614
H         3.66582399495301    3.75853442494489   -0.76849008586085
H         5.29676965531963    4.70848400261475   -3.42416860772998
H         2.37598789106980    3.86795965021408   -4.23780117207739
H         1.19604527025404    3.02040507720893   -1.59482261675360
H        -0.91135771676539    3.47129690309125   -2.56418595937422
H        -0.19615052539358    3.84764655407368   -4.22169667061446
H         0.76680639533906    5.61192058079941   -3.02477423722288
H         1.38245411481030    1.42388551930733   -4.15730319454911
H        -0.05271166330304    1.42087923653418   -3.06836205316970
H         1.29302556325034   -1.63609085636494   -1.46752809647837
H         0.18933331039855   -0.87152782328759   -2.60889455150021
H         0.09356906456189   -0.75371912151332    0.20317723557177
H        -0.88118200611353   -0.01862505796088   -0.86177862491405
H         1.95436036835378    1.45590067796378   -0.41717241031814
