35
 energy: -49.718637849720 gnorm: 0.106924316458 xtb: 6.4.1 (79825abcba525fcdf90b791dcacef51065a7a4e7)
C         3.81665258010719   -1.47045910448356   -2.31148739180256
C         3.23809142969113   -0.23705793789510   -2.98933175749014
N         4.13180449225848    0.95456954498748   -2.90457977123578
C         3.66336216191326    1.68820408515381   -1.93650407207103
C         4.12069342037600    3.07952621594635   -1.63281709693391
C         3.55252511703484    3.81288303487930   -2.85375720173603
N         4.34105190398023    4.35070269849488   -3.73046714559068
N         2.19702963962651    3.93598924090664   -3.10966092436928
C         1.19608883909650    2.91633438438946   -2.74043408433622
C        -0.14897678869752    3.66179411208841   -2.93973302043076
O        -0.14381680178641    4.88538284057268   -2.20403610456950
C         1.37669548632044    1.51047333731674   -3.35460626405178
C         1.94434203471856    0.42886128281233   -2.39135943976118
C         0.76274102499651   -0.46139808547947   -1.89582553053234
N        -0.08791881841763    0.38786925243481   -1.04751851489066
N         2.59187607995627    1.12838753439680   -1.26400872455271
H         4.78585032982128   -1.79893882389041   -2.70523156071698
H         3.12345352030711   -2.31067349484365   -2.42399035883103
H         3.91135953296360   -1.14038229117304   -1.27494141625546
H         3.13770010194652   -0.51076104947634   -4.04844582298089
H         5.20587828704520    3.18428003563478   -1.71071177369841
H         3.92431158504121    3.51547005831066   -0.65130748401491
H         5.36562895342048    4.30586647619110   -3.66391536472890
H         2.15739087191226    4.33303172961934   -4.05130397132781
H         1.26558000969156    2.92893760074194   -1.64427167662818
H        -1.04978205843193    3.08914853983427   -2.69631055166406
H        -0.30161749859151    3.92612239465727   -3.99365460045360
H         0.69652630033689    5.35814520983335   -2.35630715524670
H         1.97044086387522    1.50633875936176   -4.27846747145841
H         0.38378142061296    1.08400584693960   -3.55125827157948
H         1.09059955070475   -1.33958725124933   -1.34018542302246
H         0.20037751463714   -0.87050104655732   -2.74439064355100
H        -0.69140892100351   -0.17240517881745   -0.45061919687583
H        -0.82081542399447    0.91866070836188   -1.52092962461501
H         1.98437552610923    1.56308060066560   -0.57246082819583
