35
 energy: -49.723149322892 gnorm: 0.113871619448 xtb: 6.4.1 (79825abcba525fcdf90b791dcacef51065a7a4e7)
C         3.70345444631191   -1.42380495621214   -2.62005851394181
C         3.09731910225928   -0.11850468794822   -3.11430095214430
N         4.08999350913035    0.97677448380982   -2.91220428189174
C         3.73936773537696    1.62443951812318   -1.83869601878240
C         4.20035614733270    3.03894660468119   -1.68437715185528
C         3.63331994492161    3.80457614126419   -2.88587769317954
N         4.22680381173319    4.76131063663556   -3.52781290346182
N         2.38991156552716    3.44588252790818   -3.37911632725100
C         1.21410494267291    2.99635875851023   -2.60884743809916
C        -0.10160101511245    3.74025574673316   -2.95549845301612
O         0.04345369013389    5.14700052627140   -2.75935000824319
C         1.03599107733193    1.50973578566768   -2.98897785922589
C         1.90295613644484    0.44420641923937   -2.25892961957796
C         0.92027591376246   -0.60306197435466   -1.64912222966353
N        -0.27553292128669    0.08160216739967   -1.13358540381736
N         2.67729832016476    1.05430411453255   -1.15996104572785
H         4.74115134971189   -1.36239497979912   -2.96890179519096
H         3.34994447074018   -2.38161849055195   -3.01599538111102
H         3.78442188449346   -1.45037592564430   -1.53144199760813
H         2.90775606983625   -0.04912215587881   -4.19410016104508
H         5.29132790569136    3.10529307283465   -1.67760198796377
H         3.77571428599592    3.49100111297864   -0.78587839627271
H         5.15554084591751    5.02073797243601   -3.17236594432272
H         2.10657794132833    4.05448570668145   -4.15062772288485
H         1.38654045918422    3.14207980960995   -1.53386313498633
H        -0.95948579028802    3.51117550855078   -2.31504272003900
H        -0.31600574164323    3.56687754798272   -4.01752008190393
H         0.90447391660264    5.40476030006319   -3.14023231212919
H         1.03817332098604    1.47463363406125   -4.08662683815321
H        -0.00130121793516    1.19559822766558   -2.81074439297165
H         1.56673111482516   -1.12744486321617   -0.94587147442601
H         0.69040266635515   -1.20325450935366   -2.53828359128794
H        -0.28628253193020    0.36615649088013   -0.15720954437025
H        -1.03913949064944   -0.59563856380113   -1.09829963873763
H         2.25342279073452    1.64076219613065   -0.44396528207534
