35
 energy: -49.729505063348 gnorm: 0.095386785617 xtb: 6.4.1 (79825abcba525fcdf90b791dcacef51065a7a4e7)
C         3.34723592288607   -1.57044335497193   -2.92335601427295
C         3.08947330710283   -0.08090200595320   -3.09745196615226
N         4.18944584787292    0.86891914735173   -2.76013587890542
C         3.76328806145961    1.71161362617562   -1.86398637126935
C         4.32711492824355    3.07759548501768   -1.63301511052330
C         3.46135307998800    3.91309831550057   -2.58365366502113
N         3.79707159081296    5.12026867207644   -2.91482981494667
N         2.52008159359207    3.29163311241487   -3.38726978691596
C         1.19676534728207    2.88971029460113   -2.87229486778648
C         0.12999918741754    3.83652942042206   -3.48071522737383
O         0.15339394333073    5.10142971379297   -2.81895553619568
C         0.94032907820901    1.38810087058309   -3.12857814348220
C         1.87371328404950    0.48349219600437   -2.27392691798968
C         1.07371389242042   -0.61705821254313   -1.51032605061983
N         0.00793688110957   -0.03893003281494   -0.67702590882618
N         2.58026066715284    1.30643752370632   -1.27237378120055
H         4.16536818088859   -1.86783870757574   -3.59005930983866
H         2.44712342826771   -2.14044650853284   -3.17640931015792
H         3.64142577703096   -1.85013598885240   -1.90966374678941
H         2.83647054382453    0.05441095021204   -4.15782662073033
H         5.27527709456263    3.03527275857228   -2.17510776492534
H         4.41318333985875    3.46674539205307   -0.61658579264548
H         4.62974668393350    5.54841911439081   -2.49111180294589
H         2.43386921151548    3.75713534647305   -4.29379099830952
H         1.08352002708698    3.01073899490198   -1.78643693624528
H        -0.88271366852678    3.44304397323440   -3.34577276229972
H         0.26726543282619    3.90789181698772   -4.56698624034212
H         1.04823971188656    5.48446238915323   -2.89246935036928
H         1.01366303996989    1.16684447564334   -4.20176868225461
H        -0.08000537965865    1.20622766862246   -2.76489614233017
H         1.81674588311556   -1.11917097845118   -0.89127065556112
H         0.62776324581576   -1.37262301098803   -2.16906009939858
H         0.42216126420599    0.28897077267636    0.19205162372377
H        -0.81436393841121   -0.63080319724539   -0.54856346802661
H         2.04143225222488    1.74105200196241   -0.52603093334649
