35
 energy: -49.715775694138 gnorm: 0.113215820163 xtb: 6.4.1 (79825abcba525fcdf90b791dcacef51065a7a4e7)
C         3.72382994023380   -1.54013349195602   -2.92208665021861
C         3.17165749870401   -0.14238541197550   -3.16060366565139
N         4.22092617272386    0.90942046935675   -3.02414246714054
C         3.87770856633154    1.61335762736320   -1.98418930641755
C         4.28029726099199    3.02532291918030   -1.69882762491897
C         3.57108514354397    3.91785572974912   -2.72436431669396
N         4.13085173000358    4.88833384198240   -3.37588438511995
N         2.21910924760648    3.80322930842258   -3.00191030166621
C         1.10482967389089    2.94694232298354   -2.55128784741041
C        -0.21073358535893    3.63964746967838   -2.99183833847121
O        -0.06892654493642    5.03112457800609   -2.70525818221800
C         1.19459132929692    1.52094900502843   -3.13844836150059
C         1.96708865674554    0.43809618222108   -2.33183235217756
C         0.92729344335449   -0.51113124944087   -1.65945611354781
N        -0.09840940855404    0.20369593973420   -0.88391904802587
N         2.78090124541022    1.11606555285362   -1.30342407549293
H         4.04277886390268   -1.64162340076759   -1.87793672331056
H         4.50802731834730   -1.81738211081353   -3.63434345905615
H         2.92943750166973   -2.28164717287276   -3.02907164076585
H         2.88706924090478   -0.21166284941417   -4.21934093204871
H         5.36012755629282    3.16777823012190   -1.79015201845250
H         4.05970121606638    3.18933678833420   -0.64222418828873
H         5.15133005883731    4.94845924575292   -3.27002373310041
H         1.84235934314146    4.57728044006747   -3.55400625765796
H         1.03375159753403    2.88614863606391   -1.45684190431008
H        -0.97406766576141    3.21494461247803   -2.33185639505035
H        -0.43099059545169    3.59297564011908   -4.06572283915098
H         0.39224196051540    5.14909698515521   -1.85304143605479
H         1.53551229829261    1.65939201281197   -4.17318342553144
H         0.18193317809403    1.17805851286223   -3.39019121973818
H         1.52179052488182   -1.27604839474831   -1.16053892834609
H         0.38471427429489   -1.17102168495663   -2.34781152920425
H        -0.37867086814675   -0.31554385584474   -0.05552295325796
H        -0.91203070631406    0.58884061793430   -1.36628721397920
H         2.47138403794059    1.65147529904982   -0.49485188095199
