35
 energy: -49.714354230696 gnorm: 0.122449707641 xtb: 6.4.1 (79825abcba525fcdf90b791dcacef51065a7a4e7)
C         3.68871598033848   -1.48889570387086   -2.84347506829924
C         3.01162343660853   -0.17555481338681   -3.20702124086242
N         3.96843233632665    0.96901641663442   -3.22587408122634
C         3.78146287245299    1.58589187076779   -2.09479693746227
C         4.28966209187306    2.93299941101163   -1.68959358394213
C         3.67236052001657    3.88851885211830   -2.71781707257565
N         4.18348400038231    4.88645550528426   -3.36783247770169
N         2.34982545499878    3.76789445945312   -3.11070458907984
C         1.25607220364596    2.96534353761916   -2.52973744588250
C        -0.02793041065009    3.69863491353919   -2.99691289083161
O        -0.11984640234613    4.89013889774910   -2.21568586037533
C         1.14948483860808    1.53930278451161   -3.11396209919026
C         1.88790466972789    0.44172829255897   -2.29541578555037
C         0.82539028248013   -0.56516360132696   -1.75548206638826
N         0.14553356474273    0.10381764639204   -0.63532095923891
N         2.79957318746133    1.03014043686470   -1.29432209190971
H         3.48651741646266   -1.71276317032972   -1.78930393586232
H         4.75913543486992   -1.34281663522773   -3.02237497095345
H         3.31415284975591   -2.28437776111765   -3.49097674500116
H         2.65684739110040   -0.27946495797967   -4.24145396300473
H         5.37177288453114    3.08515970396483   -1.66612865642784
H         3.72937797056697    3.15701982037189   -0.77971965339570
H         5.19050673362131    5.08541322860398   -3.31764686882702
H         2.11835196072405    4.25469446151031   -3.97981411774704
H         1.26916195663802    3.03818163568533   -1.43379805513040
H        -0.97441886847932    3.15685081806799   -2.90069861218148
H         0.06151090671574    3.89586002068073   -4.07256238912317
H        -0.54786051378535    5.55837073835216   -2.78413760840751
H         1.75286073658580    1.64767287748854   -4.02515015116002
H         0.12334607653224    1.24673233562303   -3.37447435225101
H         1.21973088330453   -1.50626416980102   -1.37303134137049
H         0.05630219456779   -0.85195660491479   -2.48344771238395
H        -0.75121149325941   -0.29277979863926   -0.36521856584506
H         0.07541920592724    1.12057127702288   -0.70082755381197
H         2.43999959120807    1.50629834260082   -0.46955912644716
