35
 energy: -49.721122988996 gnorm: 0.106836618553 xtb: 6.4.1 (79825abcba525fcdf90b791dcacef51065a7a4e7)
C         3.48523509462566   -1.57418589333190   -2.78196254889546
C         3.01468507725379   -0.16443909687973   -3.10858327832330
N         3.97821549088887    0.97388313549693   -3.06718708186601
C         3.70054930107738    1.69897641803975   -2.02221356589428
C         4.33951707432606    3.03017229859789   -1.78390145529254
C         3.62749867684689    3.95745415061672   -2.77612137046876
N         4.14665816456614    5.11163470159853   -3.05538019255016
N         2.36014660462201    3.70533646204335   -3.27438357825798
C         1.20632396317695    2.95365167258066   -2.74375164195190
C        -0.00113536187414    3.73859198567226   -3.31867991192037
O        -0.02812701632884    5.10827719989660   -2.91658561721559
C         1.10499427380974    1.43839032784734   -3.02657115923178
C         1.88586624167180    0.40087915361985   -2.16997251945411
C         1.00138730259054   -0.66351690951438   -1.44951808237393
N        -0.05549637963999    0.02489832281460   -0.69216523872116
N         2.72185674199661    1.15145530873976   -1.21220831160989
H         4.35634031686861   -1.75530937883218   -3.42278051000191
H         2.76473488370766   -2.38120228825456   -2.95150918944412
H         3.68957465734792   -1.68121231929066   -1.71465830206573
H         2.59652188849526   -0.24587531796946   -4.12111580683813
H         5.38954904942726    2.99543707105280   -2.08538688264780
H         4.20731555935967    3.21254023682575   -0.71561371502198
H         5.06753699699894    5.25117003636230   -2.62097297407295
H         2.21954071006524    4.20175327642254   -4.15739315981005
H         1.14536608651393    3.06214257450395   -1.65238839096076
H        -0.92338876233004    3.31264456215883   -2.91045809269710
H        -0.00551174506815    3.71591410450980   -4.41566937853022
H         0.87067112063704    5.48165853766879   -2.99152256563655
H         1.48035266839923    1.39756271177132   -4.05783707981503
H         0.04632753495597    1.14617987843279   -3.01036426127833
H         1.76599216549511   -1.07740678026707   -0.79261782232769
H         0.63634456784313   -1.50277121014639   -2.05456082798337
H        -0.13667241630201   -0.56260895322417    0.13405639797998
H        -0.99342432217486    0.10197669818565   -1.08883283582853
H         2.25067773932081    1.61130134442330   -0.43581572018790
