35
 energy: -49.718106077978 gnorm: 0.129585648848 xtb: 6.4.1 (79825abcba525fcdf90b791dcacef51065a7a4e7)
C         3.49385442292134   -1.54184594089969   -2.71627077457682
C         2.90647761603721   -0.19436207305088   -3.10966642661092
N         3.97563740326413    0.84444876457549   -3.04923970545939
C         3.78054491190230    1.62723199516654   -2.02746784405409
C         4.33142708140297    2.98159482705872   -1.71221385268034
C         3.56738497619678    3.91727282394739   -2.65670764555980
N         3.85385498847455    5.17361507833518   -2.79521352720364
N         2.44002093275002    3.53461791550429   -3.36426356058389
C         1.23009749998018    2.87398244774312   -2.83743053756136
C         0.13318615212742    3.79663339991326   -3.42915053685572
O         0.25089377914123    5.07959432126828   -2.81384398414760
C         0.89340583805666    1.38734443350612   -3.08806506549295
C         1.81546888609598    0.49417426289180   -2.20943063932354
C         1.04915405945688   -0.63244186028647   -1.44930285627528
N        -0.19093651771995   -0.07834157285261   -0.88392669321302
N         2.66871416884481    1.26864356946532   -1.28654023204448
H         4.21699784280630   -1.77158542748040   -3.50782686506144
H         2.85898529765071   -2.43403207155481   -2.72560745944746
H         4.11256549627165   -1.54249217330179   -1.81652422820794
H         2.52578608792604   -0.23244846473789   -4.13939347848660
H         5.37301018302298    2.96465509126270   -2.04309876636928
H         4.25495081432915    3.16282800696911   -0.63830514942130
H         4.70041136843249    5.43685524513733   -2.27536309131085
H         2.32930817314073    4.19837965177058   -4.13437305845808
H         1.20190677126540    3.13525379287576   -1.77089293682139
H        -0.90215831896479    3.51685132044093   -3.20912461313073
H         0.26113005062704    3.94422459196157   -4.50885722318513
H         1.06659263365534    5.58687485657697   -2.98753652142460
H         1.18544664622855    1.25810835117838   -4.13881737390276
H        -0.17679794737181    1.17995833962631   -2.95360420945004
H         1.69957687761916   -1.12859655873428   -0.72942506968021
H         0.79915538216527   -1.42480965380748   -2.16577661493922
H         0.24263558939210    0.52381509830706   -0.18835562311540
H        -0.71479223894599   -0.81484385221278   -0.40839051003491
H         2.18428781236243    1.94424117899772   -0.69904346499297
