35
 energy: -49.718575194878 gnorm: 0.115684519525 xtb: 6.4.1 (79825abcba525fcdf90b791dcacef51065a7a4e7)
C         3.59003017438116   -1.47292296038633   -2.73020222010976
C         3.07985178486583   -0.15102860405461   -3.28499746251396
N         4.13014872098766    0.89739052036888   -3.13145372717248
C         3.86341713702427    1.60620830525310   -2.07255807164260
C         4.44988238899670    2.94294641242786   -1.74645279808527
C         3.63871653169239    3.82552559272396   -2.70268817138464
N         4.13823106747407    4.71705377561550   -3.49974997047937
N         2.25594097417888    3.88011189155905   -2.64826479304005
C         1.16451590523006    2.93321258902494   -2.34813152197946
C        -0.14539334396210    3.60536289574681   -2.83494108320327
O        -0.32870290525081    4.97573709274028   -2.47868539589038
C         1.24933469726665    1.62348847939464   -3.16280940364088
C         1.93970009383924    0.46236884589800   -2.39135072278909
C         0.90388239549897   -0.51353553859792   -1.75182835259505
N        -0.12909035104607    0.23684253517072   -1.02080029720078
N         2.77804614233528    1.11736183207633   -1.36777022931315
H         4.29831533078263   -1.18299953843150   -1.94499254761097
H         4.16989807913849   -1.90680917500228   -3.55156575053750
H         2.81721033389389   -2.14799315531007   -2.35686940868679
H         2.68408806033305   -0.17422158059476   -4.30947175362231
H         5.48279377147218    2.93286755826676   -2.10374767062052
H         4.51061562556929    3.23045300646730   -0.69496556699071
H         5.15668807137882    4.83053586479358   -3.42187374553544
H         2.02209744592657    4.48670763507097   -3.43773576335465
H         1.20810797632225    2.91828943011727   -1.25066311477108
H        -0.93192646592676    3.03490950834608   -2.33038565933289
H        -0.19910858345329    3.52594601112188   -3.92797674500310
H         0.44773612033801    5.46015572511883   -2.81831502904679
H         1.68439470879559    1.76158023670126   -4.16167057864647
H         0.20871166537258    1.30859329849820   -3.31891706975796
H         1.48297998309112   -0.91618584490053   -0.92118879247838
H         0.52507508523011   -1.31990293747990   -2.39210745559344
H        -0.64663828832032   -0.37350959657441   -0.39309738588618
H        -0.71125789815178    0.57284976237426   -1.78967946642399
H         2.33696918978388    1.66201074861684   -0.62948698322742
