35
 energy: -49.724686214041 gnorm: 0.108589670005 xtb: 6.4.1 (79825abcba525fcdf90b791dcacef51065a7a4e7)
C         3.52326471532235   -1.45019123038215   -2.61873841220048
C         3.03458198940842   -0.11350389996710   -3.15719977680356
N         4.02579513037909    0.99259762398958   -3.01606882220098
C         3.70813075502362    1.66025873705646   -1.94455288148419
C         4.19249196943915    3.05320162279786   -1.69503480927295
C         3.69276427508815    3.94552365724768   -2.83755649366227
N         4.40072666411100    4.83238584498129   -3.46358325768774
N         2.39231711288884    3.71767628745216   -3.25580591556748
C         1.21975180135253    3.06395002981759   -2.64291153781773
C        -0.13946399546034    3.73345102456761   -2.97296101207584
O        -0.14099914817835    5.13260296305320   -2.68867691143656
C         1.08718292319819    1.57157112874673   -3.01907937402149
C         1.87074831264667    0.45822632988076   -2.26645706831425
C         1.04115988138475   -0.73512037868820   -1.69900376107573
N         0.03829356500052   -0.18105817310286   -0.77608653113377
N         2.70692759287976    1.05511643853732   -1.20622908649980
H         4.53372387232315   -1.62533539085863   -3.00677771734281
H         2.88488915194234   -2.26778125150612   -2.96968752899269
H         3.68136444934288   -1.43187870443237   -1.53845289571071
H         2.74495075146507   -0.26574019227662   -4.20584284679503
H         5.28267530756936    3.09748295946426   -1.75989309503524
H         3.88592193185057    3.40803851719066   -0.70909384444995
H         5.40747506788531    4.83835686924415   -3.25713820952612
H         2.19812049937187    4.35901908202965   -4.02838127536209
H         1.26416449283253    3.17835929887692   -1.55135397528550
H        -0.94610836379165    3.32342770789814   -2.35665480949338
H        -0.40119030280128    3.41446312414307   -3.98965437070736
H         0.40464909625341    5.47989760458342   -3.41978681240032
H         1.37645224210409    1.57936972401846   -4.07848140476982
H         0.01093267012956    1.36058565291206   -2.95911776142237
H         1.76223544347738   -1.19661263357770   -1.02482403156472
H         0.68671903794512   -1.34624126318308   -2.53839858299067
H        -0.54535153399235   -0.97082189213132   -0.51145809676948
H        -0.59345427557172    0.53591784687867   -1.13641296502441
H         2.19936880784868    1.52854993388581   -0.46158266439058
