35
 energy: -49.724567478203 gnorm: 0.105739144281 xtb: 6.4.1 (79825abcba525fcdf90b791dcacef51065a7a4e7)
C         3.71988800864784   -1.30847424891276   -2.52956912363999
C         3.02562215018023   -0.06995487133996   -3.07687991727162
N         3.95843771400672    1.07819940105747   -2.88328526120729
C         3.62937659121126    1.73245230852092   -1.80694873534547
C         4.14247924486305    3.12718349364672   -1.63781717710453
C         3.69263521769613    3.85023068118204   -2.91302903232237
N         4.38301857451830    4.70498345459911   -3.60035231846825
N         2.38859336783340    3.60950317114911   -3.31244726895416
C         1.20946788043892    2.97794724452727   -2.68898344848722
C         0.04105506474949    3.85417565969942   -3.21020037672208
O         0.17886893837592    5.17941453193530   -2.69717481335656
C         1.00571316248737    1.49459359681184   -3.06900644582949
C         1.79514297505379    0.44095209949752   -2.24039807778234
C         0.90839395396696   -0.73402501192335   -1.72328929514007
N        -0.10119919569488   -0.39113567427578   -0.70955829983025
N         2.54673993393804    1.14166809692973   -1.18037165086824
H         4.64361761776604   -1.54304000332304   -3.07176852750062
H         3.09725104045340   -2.20319528558575   -2.63416142866322
H         3.97536120346976   -1.08923635291114   -1.49081224209676
H         2.88369174800540   -0.19477381843016   -4.15900301633516
H         5.23542740895829    3.11693488370492   -1.63267855545193
H         3.87018973694173    3.70655982502163   -0.75342163846994
H         5.22454886739559    4.94595692695682   -3.06187658241551
H         2.20868966090002    3.91780418561813   -4.27082648566551
H         1.10238914624061    3.17746287690784   -1.61414042674314
H        -0.90586940033894    3.42437768783141   -2.86780388823048
H        -0.12722055957645    3.95099284912556   -4.29012123872826
H         1.08199902377524    5.40534534776557   -2.99073669422748
H         1.07770440472275    1.44675718028483   -4.16381196800613
H         0.00499221427996    1.21427250583860   -2.71347508538282
H         1.59206532694615   -1.38132107331883   -1.17461395946131
H         0.49950226855383   -1.19094369750218   -2.63307696554701
H        -0.39774872857929   -1.22510148601502   -0.20860327754998
H        -0.90683623463279    0.06201517359211   -1.14383741857798
H         1.94133211021942    1.69503801924194   -0.57744829798133
