35
 energy: -49.726566547985 gnorm: 0.106664371803 xtb: 6.4.1 (79825abcba525fcdf90b791dcacef51065a7a4e7)
C         3.43730316587906   -1.51959698083286   -2.78495870139797
C         2.98545697092580   -0.12295298311286   -3.18583893918878
N         4.06800326793528    0.89279597615297   -3.03674324397835
C         3.72430518727835    1.66508343927166   -2.04665634817970
C         4.28220498152759    3.01626688241756   -1.73010307613181
C         3.53345539177155    3.98308034173610   -2.65528842736798
N         4.04750627541744    5.12607900135832   -2.98536498913950
N         2.39214737511187    3.55432365681103   -3.31224621628948
C         1.18952975867157    2.95234058825499   -2.70459975912552
C        -0.05177895086583    3.72157540873050   -3.22619568014581
O         0.23173724801721    5.10150124002932   -3.45829311458235
C         0.98796336707523    1.46994425801742   -3.08949405643934
C         1.79984333049860    0.40554367109446   -2.29712170585327
C         0.90339268168248   -0.64809213652846   -1.57564801280724
N         0.33359336581516   -0.12446060701202   -0.32439236315048
N         2.61438146495749    1.20522320330386   -1.36085402962628
H         4.33961554142665   -1.62225249004914   -3.39942749906297
H         2.66448706559596   -2.21441102338463   -3.13011199547807
H         3.60794610873456   -1.68032986983540   -1.71847214300684
H         2.73340208448757   -0.10077940581865   -4.25480622568618
H         5.36140981363918    3.15616788230862   -1.83214103392714
H         4.08976008233274    3.28614623866259   -0.68986076235591
H         4.93030027178172    5.31855429053719   -2.49564508522759
H         2.12707625199310    4.29528118852872   -3.96541146097701
H         1.32458001465585    3.10703905649508   -1.62553085981320
H        -0.76111549058054    3.48125750223348   -2.42762409551549
H        -0.31447698478878    3.33823929355662   -4.22015870479243
H         0.64303677943385    5.62707863301664   -2.74592498166611
H         1.10181593908144    1.31467381337619   -4.17069656708811
H        -0.07608034604290    1.30407784247458   -2.87333630766341
H         1.39480264786220   -1.61569988900775   -1.47718576898601
H         0.04762638924795   -0.75966619638617   -2.25306662598618
H         1.08324990398234   -0.11522229907281    0.36286760390538
H        -0.32018780254642   -0.79533532144849    0.08241518468749
H         2.06706907774090    1.76112384258002   -0.70688378448007
