35
 energy: -49.721202749910 gnorm: 0.118316684677 xtb: 6.4.1 (79825abcba525fcdf90b791dcacef51065a7a4e7)
C         3.56724830202472   -1.45591244488651   -2.70089617950303
C         3.07700982395637   -0.07872566856581   -3.12339738580502
N         4.15658492302327    0.92964489343469   -2.91461899850284
C         3.79407606142791    1.68419405012286   -1.91758775709202
C         4.28245108768637    3.08009905234380   -1.69377096233925
C         3.56280978252066    3.89714076753074   -2.77353083093159
N         4.01383286819681    4.90743015907132   -3.44846661744002
N         2.31178958342293    3.54191901079912   -3.24974064689658
C         1.12038403729339    2.94891259490410   -2.61192939469801
C        -0.09733456248240    3.81639505243450   -3.02335061594549
O         0.06547297911255    5.19472004621039   -2.68844783958661
C         1.15023577739313    1.49012140426317   -3.11918542433059
C         1.88881921757364    0.44470963300099   -2.23512637098763
C         1.01868760389153   -0.68753743713733   -1.60648968765098
N        -0.05284969773746   -0.13240528091240   -0.76498028996028
N         2.70561574007827    1.16596963627413   -1.23904184941132
H         4.22768860902536   -1.82144742407131   -3.49618258383803
H         2.77623857060130   -2.20029587297022   -2.56183145809904
H         4.08591525702248   -1.33936476860882   -1.74708859975786
H         2.91448926081428    0.02921459040932   -4.20443873040290
H         5.37195709614793    3.10756296312462   -1.77677404280753
H         4.09772078690895    3.45038456930292   -0.68345550079781
H         5.01322557161302    5.07640297852436   -3.27858438363098
H         1.95543484291425    3.93049994688788   -4.12605209100437
H         1.12721176241701    2.97953953447112   -1.51394248643280
H        -1.00279526923728    3.49919336207831   -2.49594983039837
H        -0.19413591292497    3.59888506359193   -4.09444269108126
H         0.99372614403444    5.37385408381867   -2.93160276957572
H         1.48921468575449    1.45405652280839   -4.16315037996559
H         0.09356410122030    1.19903127873522   -3.19085400560620
H         1.66871252208007   -1.35157165310464   -1.03730648486296
H         0.59756676173888   -1.27059467603557   -2.43497154904611
H        -0.71689011458114   -0.84210167023395   -0.46535069073911
H        -0.68336103280722    0.40018424203019   -1.36647753970434
H         2.29703668550919    1.63576921429827   -0.43368169423745
