35
 energy: -49.718536022821 gnorm: 0.117570378665 xtb: 6.4.1 (79825abcba525fcdf90b791dcacef51065a7a4e7)
C         3.51170382540394   -1.32830094712099   -2.49555032295872
C         3.06208827851952    0.04315566109838   -2.97766761062653
N         4.08233420184364    1.12109846490253   -2.82594557875962
C         3.64126838433231    1.88693124489273   -1.87002218495308
C         4.23495288642066    3.25783205889641   -1.94299218052636
C         3.80740934859956    3.68478828136178   -3.35233141534451
N         4.55794301939753    4.28532722088951   -4.22163974808628
N         2.48733937043484    3.50020613219815   -3.72830283049332
C         1.35964824632514    3.05388355677337   -2.88746049214048
C         0.10283674841555    3.87659320529178   -3.27243518864350
O        -0.62330439676336    4.05844455991144   -2.05666585016183
C         0.98272995348727    1.55689109786184   -2.94418532409406
C         1.88034316024016    0.60403264314975   -2.10376697608792
C         0.97881745868357   -0.46197802685403   -1.40722606676018
N         0.13099975923524    0.13227242472265   -0.36196364486575
N         2.60380924017266    1.40190366633580   -1.09403650657133
H         4.11177435858260   -1.41408738974782   -1.58185796849063
H         4.03571756808960   -1.85615090560646   -3.29924560056042
H         2.65585516963007   -1.98878501793609   -2.34182479665259
H         2.76672884486830    0.02383627254149   -4.03554472558007
H         5.31527476681868    3.12672639843030   -1.84109478680559
H         3.83718068990533    3.96086661534244   -1.20848984094740
H         5.56611491273039    4.39999664562243   -4.05842850355158
H         2.23691612365995    3.72960632524685   -4.69296304540459
H         1.56053437471348    3.33849707202348   -1.84573126106117
H        -0.50844188626300    3.32079254687320   -3.99080253908019
H         0.35873749405938    4.88825668188739   -3.61150914036236
H        -1.41845026249161    4.54953240837493   -2.33852226670793
H         0.95882567192321    1.12959244577737   -3.95557775601518
H        -0.03821286942699    1.52243609768649   -2.54055990325721
H         1.60367415268087   -1.21186532178803   -0.92280216161688
H         0.35306006547833   -0.73827407963522   -2.26499578902322
H        -0.31643779876352   -0.64751071537281    0.11357229153022
H         0.71252237516653    0.56338462192233    0.35843125181929
H         2.03744253194407    2.16384763626343   -0.72671697936528
