35
 energy: -49.720639982389 gnorm: 0.119181246035 xtb: 6.4.1 (79825abcba525fcdf90b791dcacef51065a7a4e7)
C         3.31139476506863   -1.54510592688273   -2.72687422390081
C         2.87160617289368   -0.14035554513640   -3.11255127747585
N         4.04686755643903    0.77752484286085   -3.15879267285960
C         3.80578274545298    1.55219000841341   -2.14065692458378
C         4.42108103966969    2.90566264842509   -1.97733289562009
C         3.82810520094484    3.90080203128493   -2.98202161731123
N         4.36417626161665    5.02048071833801   -3.35430140372104
N         2.61691077505603    3.48329146310769   -3.50804710745671
C         1.38619655466893    3.09528343895833   -2.79201691578986
C         0.25096644935900    4.00183709003515   -3.33427599764979
O        -0.76439070871642    4.11081803098821   -2.33646892505170
C         0.90492079121669    1.62939626787773   -2.86830552160537
C         1.80121198214443    0.55302218923176   -2.19152446729207
C         1.02781551298546   -0.49067272540856   -1.32731652510303
N        -0.09586963526301    0.14361987865861   -0.62055875273390
N         2.74290613569243    1.26328634659626   -1.30366530766611
H         3.93644612956038   -1.55819254494345   -1.82608722986983
H         3.96627850648404   -1.79706406411479   -3.56758015738084
H         2.44595113469078   -2.20851523577845   -2.78382223623112
H         2.48173958105306   -0.19825024189216   -4.13791299977889
H         5.48562482132852    2.83870873526622   -2.21593475355247
H         4.40847099331114    3.21689945297553   -0.93093592440167
H         5.33824099630512    5.24775766876798   -3.11820686102209
H         2.51075562125796    4.09299923181988   -4.32222959264080
H         1.50986291876809    3.42898878150807   -1.75283105445167
H        -0.09407456572470    3.56001369194622   -4.27468355619982
H         0.59901806349245    5.01149940039113   -3.58599294188235
H        -0.76991815607287    5.03101268342215   -2.01077196467567
H         0.79752682269973    1.38542623855277   -3.93367651868064
H        -0.05895770308362    1.69613711213807   -2.34589880762712
H         1.78207102357316   -1.00030669258901   -0.72830467242434
H         0.52029580556028   -1.17783239838367   -2.01573212471488
H         0.08260253098243    0.92657704819010    0.00355845662299
H        -0.44988446131654   -0.50451731385272    0.08483955176327
H         2.41544964532216    1.93079068091157   -0.60834977796075
