35
 energy: -49.723856936206 gnorm: 0.103829199693 xtb: 6.4.1 (79825abcba525fcdf90b791dcacef51065a7a4e7)
C         3.29152008483090   -1.57550795740767   -2.79119788252787
C         2.84088928140049   -0.17462606167587   -3.17842677943378
N         4.00226633023290    0.75770336013055   -3.26701115007455
C         3.87611718354393    1.56299732034228   -2.25191685047571
C         4.69761359177555    2.79705385767608   -2.05341487138078
C         3.85337133689844    3.88928881606443   -2.72094765335102
N         4.18772484038800    5.10553082964023   -3.01861847069962
N         2.70372211853660    3.44695187888694   -3.35392046415902
C         1.38941463220224    3.12021220776366   -2.76762360573712
C         0.17934614836430    3.95223439824398   -3.26572517977378
O        -0.73418095512990    4.02929984235052   -2.17120468611666
C         0.97581758445448    1.64671718201097   -2.97743646926082
C         1.85342986731386    0.60140776004766   -2.23106084450514
C         0.90412051907242   -0.36440555105881   -1.45626218857679
N        -0.08354276204721    0.37667531150402   -0.65637321593973
N         2.84172477703914    1.28769018477697   -1.37558055016649
H         3.38447426546748   -1.62511598249800   -1.69978767442336
H         4.29654318578143   -1.67298475305053   -3.21495361189053
H         2.60260690322819   -2.38775050390184   -3.03204707466109
H         2.28725709694947   -0.27883607618943   -4.12147825902613
H         5.65636923106024    2.79146945011793   -2.57822300684101
H         4.96185950464482    3.08178834036749   -1.03308435363815
H         5.14853814722082    5.40154424328905   -2.80551893484601
H         2.51054325247289    4.18508387917726   -4.03491143192256
H         1.38423593169375    3.41480451591607   -1.70944193525538
H        -0.23456992942346    3.42055407655556   -4.12863717622844
H         0.62447673346669    4.92611884351169   -3.50515614195274
H        -1.53181406240033    4.55779432680904   -2.36444615785267
H         1.11109142692402    1.48878015502998   -4.05578107933056
H        -0.07545038336170    1.45982611051345   -2.71988598357946
H         1.48897277088694   -1.03695554741351   -0.82931107351091
H         0.39111914440754   -1.01564128076651   -2.17487356989075
H         0.35965199923754    0.85561385888196    0.12375036944628
H        -0.69824818172288   -0.33924437374163   -0.26574380433299
H         2.44152721002985    2.03872507524534   -0.81697337029357
