35
 energy: -49.720446344507 gnorm: 0.122473422956 xtb: 6.4.1 (79825abcba525fcdf90b791dcacef51065a7a4e7)
C         3.62898014634869   -1.37730667604502   -2.71643717152119
C         3.10322983380705    0.01251140302603   -3.04427363173838
N         4.17077761454980    1.02752128018239   -2.80767551135154
C         3.70425163017667    1.74329266526590   -1.82540607582473
C         4.04296990391086    3.18079179845472   -1.58871826922542
C         3.64685981879196    3.71514640043019   -2.97034200327154
N         4.30808922463635    4.48542219257593   -3.77600674363837
N         2.35125860166699    3.43855885513937   -3.37398373975756
C         1.12818196840284    2.93411152489881   -2.72013099705542
C        -0.05618828226507    3.78791665792595   -3.24254435867345
O        -0.15872887651007    5.04156959768821   -2.56705514119982
C         1.00106102967678    1.46002945486751   -3.16419614323172
C         1.82128278955305    0.48930520331832   -2.26704378245809
C         1.05879851077300   -0.66929635488221   -1.55251129417419
N         0.35985321516803    0.01729481598846   -0.45498224478337
N         2.50260959487380    1.33999203913863   -1.27121115914832
H         4.55179279322230   -1.42797314444110   -3.30646039988716
H         2.96060132801798   -2.13010310929605   -3.14737726265058
H         3.73850448328695   -1.55254774984284   -1.64422327184586
H         2.80290158899816   -0.03301076655393   -4.09994644702544
H         5.07169881335015    3.29909140094356   -1.23887665062549
H         3.39897033528045    3.60679176185170   -0.81686168516680
H         5.26633736700587    4.71005331663294   -3.48020458659355
H         2.32613765183726    3.70376078457678   -4.36137549097758
H         1.22209421410776    3.13471727404775   -1.64426032804654
H        -0.97356868268291    3.32919748836426   -2.85963768336588
H        -0.09376010671808    3.81182935273875   -4.33887271261054
H         0.71284999041994    5.48113459625017   -2.56666677940668
H         1.29030673086889    1.38124059856209   -4.22069954560880
H        -0.05133221662245    1.16831669854233   -3.04673554742155
H         1.67166185615158   -1.45856737185503   -1.11789292405508
H         0.41701101879078   -1.12503004383920   -2.31677323859544
H         0.04081789216933   -0.71699659769115    0.17225704160677
H        -0.47439375459693    0.45891169852106   -0.84485608254380
H         2.03372089358220    1.83264812259506   -0.51378998558600
