35
 energy: -49.717830415954 gnorm: 0.118034691736 xtb: 6.4.1 (79825abcba525fcdf90b791dcacef51065a7a4e7)
C         3.47042266364867   -1.55643681174663   -2.17653617434567
C         2.95644064213582   -0.35116728638900   -2.95024951652228
N         4.05315729081742    0.61951050856908   -3.23464228881237
C         3.93320321794832    1.48557706503967   -2.27008633093956
C         4.68246950605375    2.77080477102942   -2.42482724441288
C         3.78355440748028    3.81794142840905   -3.09324229056495
N         4.24872175967099    4.89079285564077   -3.65203918799801
N         2.41402084074678    3.68777277052013   -3.25275334401157
C         1.19672003755260    3.03589527184113   -2.73204088135966
C        -0.09778223023830    3.82341244247050   -3.06175655981449
O        -0.96982626415540    3.66141764764189   -1.94294341393317
C         1.23732002411628    1.56807888439578   -3.21176818859051
C         1.94557974826399    0.60504375192689   -2.21633698871882
C         0.85606881588243    0.00900877746073   -1.27187689071845
N        -0.02770401023017    1.11555040584702   -0.87311227286039
N         2.88591150892362    1.37005715778082   -1.37366998870031
H         4.05652339779896   -1.21731116255682   -1.31412246064141
H         4.23343975521718   -2.00882150444530   -2.81863826808963
H         2.74345337761907   -2.33898141260748   -1.94962808932722
H         2.55645565386835   -0.68422235980821   -3.91761747765772
H         5.31825315677588    2.51514157609677   -3.27634509449866
H         5.19396139897823    3.22103363906064   -1.57180671747961
H         5.26997399678333    4.98598610531328   -3.71668961394522
H         2.07561584772281    4.34151552146895   -3.96268861452872
H         1.22416150189733    3.01832608208330   -1.63408906441151
H        -0.53218808074499    3.65837269457420   -4.05305925378994
H         0.18348699309104    4.88347239088678   -3.02889521859548
H        -0.95699317730284    2.71433679505814   -1.70684929553768
H         1.81596143303137    1.55861848815953   -4.14512495699925
H         0.22397961343611    1.20059462169557   -3.42276919126572
H         1.33067543586601   -0.49326679248661   -0.42931461525993
H         0.28485014680430   -0.67568015925402   -1.91108814086373
H        -0.94512047434794    0.72347753194900   -0.67557129844620
H         0.24951033997084    1.43992155085600    0.05475121653933
H         2.69077363467497    2.15368851647900   -0.75391470932981
