35
 energy: -49.720513379530 gnorm: 0.106559741163 xtb: 6.4.1 (79825abcba525fcdf90b791dcacef51065a7a4e7)
C         3.30214604396574   -1.56872518232050   -2.37130361846987
C         2.73021016288276   -0.23999055965668   -2.84336094310357
N         3.76709913628717    0.75963273552873   -3.23258651445141
C         3.82876839618363    1.69055318690853   -2.32461490216972
C         4.57250492896058    2.98155549609903   -2.45623540902287
C         3.62087842205944    3.89407864735050   -3.23919817861560
N         4.13827619100306    4.89054109327612   -3.88650565260760
N         2.25259843339921    3.71010985115241   -3.34862945706440
C         1.19577614967038    3.10005578247849   -2.51864892585354
C        -0.12517749563629    3.89206607778173   -2.69874058541759
O         0.03782448267418    5.26757395755001   -2.35254065661579
C         1.03943062337829    1.58566827789310   -2.78029398432027
C         1.86267043916898    0.63464057212073   -1.86499389527944
C         0.98039778228558   -0.14003397569692   -0.83748676491365
N        -0.00920817478157   -0.95904032001884   -1.55471103052245
N         2.98140809612882    1.39391719061246   -1.27213468168095
H         3.76167294844644   -1.45233613210130   -1.38258409304550
H         4.13405528166271   -1.72985842530509   -3.06492108337789
H         2.58210613484843   -2.36399682084664   -2.57485514085876
H         2.28077412030940   -0.52062198714590   -3.80563308799593
H         5.51174815243830    2.90068450378361   -3.00936215431272
H         4.78237079325814    3.47328658849727   -1.50432634806441
H         5.16262781328250    4.95534975198874   -3.93847830562178
H         1.89372964728307    4.34608326647434   -4.06462988709979
H         1.38471782442326    3.29565813401265   -1.45441179670664
H        -0.64833773814964    3.50850029070657   -1.81680620331234
H        -0.53727646715587    3.65488294388972   -3.68759746702022
H         0.76565403362740    5.68601472595515   -2.85057552361203
H         1.42172703356920    1.46379452484835   -3.80257891354158
H        -0.02342417119575    1.35432850025796   -2.62782601150609
H         0.42179149016808    0.49397515166571   -0.14942077596479
H         1.68901337737498   -0.73328735375449   -0.24622109854108
H         0.39216364376801   -1.32291294366286   -2.41546297979591
H        -0.23374035449779   -1.71678612310849   -0.90787126115295
H         2.67120030173069    2.02525430401101   -0.53630992975342
