35
 energy: -49.721254899923 gnorm: 0.112874928448 xtb: 6.4.1 (79825abcba525fcdf90b791dcacef51065a7a4e7)
C         3.71712632983237   -1.43113002425493   -2.89947093074592
C         2.99980214315368   -0.13985495284805   -3.26490098742304
N         4.03283674332512    0.92607543363503   -3.11485461166028
C         3.71064520270303    1.60702652111010   -2.05309822214767
C         4.20029604057422    2.98402566866892   -1.73486824466346
C         3.56482240125277    3.96688078688349   -2.72557064526594
N         3.87376955537116    5.19004875318283   -3.02231393574222
N         2.42738955382012    3.49141836785454   -3.35659510361531
C         1.23495200072084    2.98658075182532   -2.64868363033204
C         0.02760801243478    3.86147248698895   -3.07473147137701
O         0.20977361441892    5.26262884454958   -2.86973755960623
C         0.99191347650697    1.49363698932817   -2.96224815877652
C         1.86800941959575    0.38723859772087   -2.30780935382748
C         0.95948150593241   -0.66748428185036   -1.60322919447970
N        -0.05691336933367   -0.13265754896295   -0.68377078041715
N         2.69871241084509    1.05645816024652   -1.28720431113364
H         3.99371815706913   -1.43011552755895   -1.83844613879781
H         4.61717769991820   -1.57924516320498   -3.50536820970404
H         2.96793092478698   -2.19916931563770   -3.10237376012486
H         2.57041054422603   -0.28512877482695   -4.26551718683244
H         5.28738085817051    3.09030532221386   -1.69463941109343
H         3.71582049186717    3.07259745446044   -0.76049024379267
H         4.73215733167017    5.58846372947145   -2.62152285664388
H         2.24204744427681    4.16872210363776   -4.10010943498550
H         1.50624961175933    3.18382945470682   -1.60271497089786
H        -0.87180516429869    3.52457498604013   -2.54919974133322
H        -0.25827996605196    3.66774784429655   -4.11620069818359
H         1.06943259517262    5.41198286333065   -2.43207664822410
H         1.17460419668196    1.40626416496924   -4.04162774975643
H        -0.07546604402754    1.28855961132654   -2.80391594693781
H         1.66519751306806   -1.35677797874848   -1.14032265014065
H         0.52620401567534   -1.20831757833846   -2.45378822677894
H         0.34898530770297   -0.17527356494047    0.24780137224803
H        -0.94051442517161   -0.62924756946345   -0.80884119004085
H         2.19226629519505    1.56667250377523   -0.56647750297722
