35
 energy: -49.717741714924 gnorm: 0.104566370384 xtb: 6.4.1 (79825abcba525fcdf90b791dcacef51065a7a4e7)
C         3.54201056529010   -1.28085738160878   -3.07980592497916
C         3.14655680675555    0.18700448510887   -3.14675587351075
N         4.19251430064934    1.12996939382142   -2.65413827683344
C         3.70185319000168    1.75370783464522   -1.62213513913300
C         3.99493692696583    3.18142812619329   -1.28617133336567
C         3.70525174521349    3.67512237827709   -2.70872913417230
N         4.47640147796414    4.09728196490927   -3.66096554647446
N         2.36665100882005    3.63393808560405   -3.06152053062692
C         1.12807259659066    3.02108215820841   -2.54360345870427
C        -0.04375015257402    3.78648205593814   -3.21115591461081
O         0.07771129561562    5.20904615610825   -3.21326549360358
C         0.91309752387894    1.55628482161841   -2.98454111538999
C         1.88129200767724    0.55731800007959   -2.28839715728529
C         1.04813340579857   -0.63887396654656   -1.73227839973023
N        -0.00419305657124   -0.23402733195969   -0.78718042378297
N         2.55541637564374    1.16224153051480   -1.12255805604350
H         4.36807811212209   -1.55603258635922   -3.74626574294267
H         2.63670375541457   -1.88767446605259   -3.18627039847220
H         3.87199230197280   -1.52265690481174   -2.06738668919724
H         3.02931176416663    0.52562501999879   -4.18517012055654
H         5.06430858871903    3.28785377815279   -1.08670960815060
H         3.30164667630528    3.59631323423213   -0.55187371859803
H         5.42592977217762    4.40897071558027   -3.42129139027419
H         2.30988602702936    3.84449931381385   -4.06069384360709
H         0.91794439016984    3.12964581709520   -1.47093391799098
H        -0.94374181767854    3.39143090865813   -2.72889333954723
H        -0.22225346623901    3.46928759407198   -4.24626149830478
H         1.01302474441377    5.42243864803561   -3.39359756859503
H         1.00259759591082    1.45485577996894   -4.07439068741245
H        -0.10473164680533    1.22424059602060   -2.73919384993516
H         1.73154703306840   -1.31821474661304   -1.22347070006431
H         0.53622794501530   -1.30800716432633   -2.43505450999717
H         0.33292015089637    0.18982402069059    0.07369195428150
H        -0.63069560383001   -1.00132416704150   -0.53869459487387
H         1.88248569649924    1.70323651272225   -0.58335287615509
