35
 energy: -49.719266925422 gnorm: 0.115533804253 xtb: 6.4.1 (79825abcba525fcdf90b791dcacef51065a7a4e7)
C         3.38509339129862   -1.44305535993060   -2.86504793979110
C         2.94443187251437   -0.00425364791247   -3.09121487572037
N         4.02265493225908    0.99519599258938   -2.83740899362719
C         3.60466359001829    1.68974728973381   -1.81872841684403
C         4.17091845269916    3.05574347775579   -1.59386239209280
C         3.73750649712642    3.89581319437707   -2.80123934586012
N         4.18764483106986    5.06289411006042   -3.14027091395484
N         2.65557727170418    3.41364049642391   -3.51883844825567
C         1.41740758806930    2.99060898124505   -2.83627920537020
C         0.24655359443424    3.82126121960619   -3.42258082708237
O         0.08316339707637    5.09928280132482   -2.80743009385820
C         0.97313005515985    1.51336928343100   -2.91783798482452
C         1.78646362849956    0.44860151289969   -2.12745218449987
C         0.96225299661846   -0.77046868275925   -1.60895322203997
N        -0.13530246728104   -0.36073582816683   -0.71901337252709
N         2.56342477653060    1.14911985000653   -1.08574093764516
H         4.43937617852632   -1.39527341710922   -3.16250780772092
H         2.81971466053504   -2.00172651130649   -3.61829127019964
H         3.33985284723094   -1.88107900106747   -1.86583012614571
H         2.60920764828938    0.07247476046763   -4.13450384646044
H         5.26285966581701    3.10347992749215   -1.58659999790145
H         3.77482029675900    3.49761051585242   -0.67743795259983
H         5.05087026275181    5.20400488764587   -2.60070889663379
H         2.41685354451589    3.95106917697903   -4.35555045816307
H         1.42077785719063    3.29337573968382   -1.78040004204997
H        -0.67843604914731    3.26266039636888   -3.24654994856257
H         0.21051994924623    4.00032269349925   -4.50450405945478
H         0.64634092645752    5.79175838010126   -3.20262106165955
H         0.90865920332131    1.18886215830136   -3.96502890432827
H        -0.04573244989007    1.59090123832447   -2.51493247394258
H         1.61490760150576   -1.54533471930305   -1.20762053495265
H         0.57784486506987   -1.18418537767584   -2.54956450247629
H         0.27150436839402    0.16212874803525    0.05268434474649
H        -0.72650830333646   -1.14260198977346   -0.43238461692535
H         1.97973229581933    1.68223183367018   -0.44437664328695
