35
 energy: -49.720453622938 gnorm: 0.107713354942 xtb: 6.4.1 (79825abcba525fcdf90b791dcacef51065a7a4e7)
C         3.64491846149369   -1.37017885249942   -2.94827241287737
C         3.03856164086127    0.01779550625726   -3.09436484436722
N         3.92171097702944    1.20880939542774   -2.92878965133275
C         3.57249543637648    1.74711214855144   -1.79604649148630
C         4.00648851634048    3.13005248595602   -1.42688398206414
C         3.70257983233834    3.92213610582450   -2.70421135770497
N         4.50208919120071    4.70586857410105   -3.35704593889043
N         2.51982103790564    3.56390123719302   -3.32931873180086
C         1.28622161811438    2.97403296477857   -2.77416575895958
C         0.04861658623909    3.68750305520448   -3.37742858170635
O         0.18003293797012    5.08360457734051   -3.10895839743310
C         0.93177026209147    1.47768687755834   -2.92108107952732
C         1.79605521113080    0.39867770320911   -2.20784733151026
C         0.90294815826889   -0.73899211286037   -1.62272880131059
N        -0.07963789654403   -0.14108279875417   -0.70537878011513
N         2.52667655041997    1.11746042102780   -1.14525578703887
H         4.54745556247664   -1.36983454745523   -3.57093150073092
H         2.87103345731238   -2.05547504827139   -3.30967690010763
H         3.89056328162007   -1.61906676024309   -1.91383484107244
H         2.59832459524136   -0.03001166812875   -4.09966093694955
H         5.05447254152471    3.28640101610057   -1.15864575521066
H         3.41396871090371    3.41306790112349   -0.55464745950551
H         5.44090260032904    4.91690555975142   -2.99608842629059
H         2.37728824284769    4.07675940531773   -4.20256925920109
H         1.33467248635388    3.24873783879705   -1.71173946932295
H        -0.75323510786492    3.28282033831577   -2.75141471755153
H        -0.07966242830244    3.37648498034616   -4.42180953507848
H         1.10488077157549    5.37552832158927   -3.21988302174046
H         0.96822113775282    1.35126900763509   -4.01138381563007
H        -0.03346108910766    1.31168455801224   -2.42389244344435
H         1.58106137925897   -1.47626919217225   -1.19374358283024
H         0.23076170142518   -1.20470807675029   -2.35413477570866
H         0.28319784704566    0.25492662880433    0.15828972709546
H        -0.67977835259777   -0.90005006195361   -0.37858341333761
H         1.91065751588022    1.64643965520081   -0.53128917583917
