35
 energy: -49.723234913083 gnorm: 0.108212343597 xtb: 6.4.1 (79825abcba525fcdf90b791dcacef51065a7a4e7)
C         3.50971954872747   -1.47089684395862   -2.89796276519165
C         2.93828978421352   -0.10232108879963   -3.23848126718748
N         3.98079064248318    0.95726257232446   -3.11058909313515
C         3.68880700015362    1.58930721093689   -2.01054659202476
C         4.18876180433647    2.96063157417828   -1.68394353697116
C         3.57745328928883    3.98939342005218   -2.64273085373835
N         4.07687064618092    5.15425237825484   -2.91352724555219
N         2.46285305564503    3.54853940528264   -3.33650594291397
C         1.27531340993407    2.91438257346688   -2.73193861337887
C         0.06072100984009    3.71057595020525   -3.27551311354021
O         0.12162694234631    5.09679750379607   -2.93917068705144
C         1.01320195578301    1.43419435251931   -3.08776432115287
C         1.81764388022014    0.39647892812995   -2.25351523016363
C         0.98352540076387   -0.68577160196597   -1.50033751594889
N         0.17460266149522    0.00014117878209   -0.48069560442133
N         2.62391380419494    1.12893929961231   -1.25702763880102
H         4.46167101480209   -1.60833077488196   -3.42443973317336
H         2.90013672180634   -2.34456627601540   -3.15144367502862
H         3.73108081302373   -1.58158875783392   -1.83443366277486
H         2.50192607231814   -0.14350098990630   -4.24575746366132
H         5.26408176646218    3.08779129753858   -1.83288819388239
H         3.97628413898601    3.43759650475075   -0.72512568005020
H         4.96748846178653    5.28969636294438   -2.41890375994978
H         2.35318106685313    4.01107827120780   -4.24200880683562
H         1.28344318270393    3.09017773460361   -1.64769240302847
H        -0.87351248299004    3.55324767401259   -2.72680263770060
H        -0.10197880970505    3.47241374929813   -4.33415699189413
H         1.03682478471377    5.43618649484320   -2.92940945931781
H         1.28809156871863    1.30164959722550   -4.14272298907616
H        -0.07257669976780    1.29597032403534   -2.99609268191327
H         1.61956894090613   -1.33453213092696   -0.89867171037882
H         0.43306153235719   -1.32063373810163   -2.20575957932416
H        -0.58149097145327   -0.62763957579267   -0.21875996081166
H        -0.36265764417163    0.72729394462863   -0.95566434509759
H         2.35246477882611    1.45127001660618   -0.33038219310418
