35
 energy: -49.723687988496 gnorm: 0.122322466608 xtb: 6.4.1 (79825abcba525fcdf90b791dcacef51065a7a4e7)
C         3.72395838618425   -1.30669015802965   -2.73527517359692
C         2.99965467389920   -0.02229555289313   -3.11103983312247
N         3.95842538162511    1.11268058224905   -2.97513575845130
C         3.62320183820669    1.69425518555035   -1.85968760017525
C         4.14535598086260    3.06326207612765   -1.55913786594949
C         3.61698837038623    3.90962133667911   -2.72353722906464
N         4.32432951969710    4.69867438894591   -3.46966630559080
N         2.35498606330657    3.65816916973349   -3.23552535491462
C         1.19151299041340    3.01219748882843   -2.59759277899497
C        -0.00576534873878    3.84286705221554   -3.12782338613176
O         0.19489439870786    5.25499690073830   -3.06401966725843
C         0.98199544727546    1.52423606129090   -2.95584509379500
C         1.78624570042865    0.41942454000411   -2.21252502990773
C         0.97089231040370   -0.78932358355273   -1.65716624733496
N        -0.12319320481295   -0.28848025197261   -0.81062338448211
N         2.57839342197035    1.10385181419670   -1.17155517148625
H         4.70877495741367   -1.41323301431883   -3.20544814302526
H         3.20181340550784   -2.10999295805262   -3.26556878514250
H         3.63983051346402   -1.54519906733760   -1.67302112303470
H         2.84320929363313   -0.03986979715832   -4.19820606245218
H         5.23564005886702    3.11430655819825   -1.61694994724901
H         3.82873015065365    3.45416451559421   -0.59016038031800
H         5.31104428704081    4.80722690617362   -3.20356879797190
H         2.32008164084901    3.97357805909683   -4.20774164142470
H         1.17846061824012    3.03114340885855   -1.49939854825646
H        -0.86041923796047    3.66419033982804   -2.46731679244187
H        -0.14787841198278    3.47716234527689   -4.15251030344665
H         1.10616241462091    5.50500962314427   -3.30886962512965
H         1.16907332207485    1.37026843054267   -4.02699683130726
H        -0.07366048658710    1.31253525932158   -2.73859363266960
H         1.64678858783151   -1.42802877069843   -1.08913168378345
H         0.42331521764265   -1.24733607748452   -2.49027163676337
H         0.16276166687033   -0.41139966828039    0.15763131738843
H        -0.98413939204731   -0.83459581778372   -0.86999119136423
H         2.02437554707639    1.81017598520947   -0.69153031879952
