35
 energy: -49.720437523159 gnorm: 0.120165461871 xtb: 6.4.1 (79825abcba525fcdf90b791dcacef51065a7a4e7)
C         3.55959105874964   -1.44831060705139   -2.83155437175995
C         3.07336499060823   -0.03284733877242   -3.10638594500792
N         4.15254336408886    0.95327190617347   -2.80835091468319
C         3.79039097699840    1.64742315484965   -1.76824124362498
C         4.21543277736837    3.03652171687770   -1.41201151232212
C         3.72579949508066    3.75737866081170   -2.67373522663633
N         4.40665355105458    4.57895256234613   -3.40932948453710
N         2.49256510258466    3.55888125466600   -3.27185024449813
C         1.20907668323682    3.03446930101964   -2.76632421899665
C         0.00926811999560    3.78224388213336   -3.40344621088750
O        -0.15963016714149    5.04615798208485   -2.76123092052120
C         0.92914130937063    1.54331670415494   -3.05679224064501
C         1.82714406024498    0.51167749914495   -2.31566923113709
C         0.97630810395586   -0.58091033513137   -1.59690183023140
N        -0.15382789189603    0.04990907790636   -0.89735806246368
N         2.56724066485431    1.24026238372149   -1.26639422370722
H         4.29612690807302   -1.71088844488949   -3.60021912666836
H         2.68874656179337   -2.10606122641285   -2.92175452874836
H         4.07401818594778   -1.38147744835710   -1.87069760337648
H         2.72311165762251   -0.03853480231821   -4.14754140077774
H         5.29551610639481    3.15618276876355   -1.29467276920047
H         3.71363368506516    3.47854729292548   -0.54900220115963
H         5.36959384216940    4.80711259213632   -3.13204521997824
H         2.44850123840286    3.99782250834150   -4.19450649293550
H         1.10870265985219    3.14344401985500   -1.67792656254632
H        -0.83625341327188    3.10526220129248   -3.24401992213033
H         0.16550600795934    3.87877049066103   -4.48520018900669
H         0.71162831602568    5.46594809334896   -2.89371556242613
H         0.96123289119141    1.17571437789346   -4.09115623342594
H        -0.04208652445401    1.29534661875146   -2.60773520746309
H         1.52652171896732   -1.17825429865149   -0.87034245402297
H         0.46792542112340   -1.23301651808515   -2.31800188318902
H         0.10825245946636    0.37533690147174    0.02989980912396
H        -0.92247969301780   -0.62250278184124   -0.89172008575420
H         2.14518306680819    1.66921649330068   -0.44534657552657
