35
 energy: -49.721792035414 gnorm: 0.114152150707 xtb: 6.4.1 (79825abcba525fcdf90b791dcacef51065a7a4e7)
C         3.70494065805287   -1.46204317175731   -2.68281901465840
C         3.11569766494327   -0.11225026810874   -3.06535822478119
N         4.10209072385367    0.99291454806460   -2.88781536505527
C         3.74723478396563    1.63189122256602   -1.81049716696402
C         4.19508912808181    3.04970341208707   -1.64804710566719
C         3.64864066365819    3.80672208070445   -2.86445122939951
N         4.35050170267704    4.55878748655445   -3.65276177783234
N         2.32094713870253    3.83783857915017   -3.25722535346376
C         1.23627182374628    3.00965464093811   -2.69553344917918
C        -0.12265472027766    3.71013857242485   -2.95490330899881
O        -0.21541808850506    4.93593523711565   -2.22877422383824
C         1.21663947094298    1.54997801326266   -3.20073661362608
C         1.88904241843456    0.48787521069185   -2.28435045773750
C         0.91691158943717   -0.55878733184249   -1.65685088252192
N        -0.18623316186443    0.11416219530670   -0.95349282145194
N         2.61769700847587    1.14217690986762   -1.17958409683349
H         4.58577499315899   -1.64348429823877   -3.31010497085944
H         3.00826894028679   -2.25545964476592   -2.97313073831417
H         3.88805874266178   -1.59053482137204   -1.61403216693549
H         2.82748014259597   -0.10816173738572   -4.12537160660213
H         5.28189835421982    3.09249636916530   -1.75612862459668
H         3.87800452604111    3.51097095967227   -0.71067652697341
H         5.37326426191801    4.63949926590168   -3.59243007966124
H         2.19066180939211    4.28958473881743   -4.16544158781895
H         1.47286133798967    2.99550736060129   -1.62297335994065
H        -1.02943438431163    3.13158405814182   -2.75081289188160
H        -0.18762381808861    3.91043079313940   -4.03174190843434
H         0.54057250248862    5.41979195577183   -2.61247744830651
H         1.53921268954199    1.38982220115202   -4.23821761570727
H         0.13136873402192    1.38099217361968   -3.20822618464322
H         1.52596311548629   -1.21404633644477   -1.03464895890294
H         0.56622161784323   -1.18550071910664   -2.48626487901116
H        -0.51484318348763   -0.47846690358051   -0.19507160407199
H        -0.92881716770600    0.11227101448103   -1.65460658214800
H         2.29115589721600    1.80960607478118   -0.48376609463597
