35
 energy: -49.719347381161 gnorm: 0.127106528353 xtb: 6.4.1 (79825abcba525fcdf90b791dcacef51065a7a4e7)
C         3.44571288234617   -1.49149082766435   -2.49158499070052
C         2.86026662366069   -0.20727382063596   -3.06037650580074
N         3.96343241973118    0.77405572026328   -3.27461831763504
C         3.81510549627401    1.58990089467821   -2.27101273544362
C         4.52558882161368    2.90229767988485   -2.17109772217909
C         3.82320752431506    4.00197049322554   -2.97651834111162
N         4.43889582996146    5.00008543723295   -3.52818786730514
N         2.58815866990897    3.69800423234582   -3.52448611805126
C         1.51820150922143    3.14543466605051   -2.67139436811568
C         0.22347865355373    3.96500668955234   -2.90935709480853
O        -0.76966332108455    3.57942516506661   -1.95886150656937
C         1.15287511757234    1.68109579095740   -3.00081784200054
C         1.86665129406204    0.59694491610722   -2.14344270265635
C         0.73483988696542   -0.25365345170912   -1.48786518993263
N        -0.35967948773336    0.59431545048497   -0.99039354602873
N         2.90472489710852    1.21884205441828   -1.29774532218446
H         3.86696563605691   -1.35835163566585   -1.48804239113923
H         4.28255493770763   -1.92108651079436   -3.05219626195487
H         2.70059175359757   -2.28808539767207   -2.44079859328234
H         2.42871677375876   -0.37929388116191   -4.05581019782831
H         5.50637292339442    2.74907921504658   -2.62854037026524
H         4.51423327362783    3.15203695089212   -1.10832995031737
H         5.42311148910047    5.11701797743605   -3.25644556616048
H         2.35074254627690    4.23453861524998   -4.36214358301690
H         1.85744836058553    3.35913026503186   -1.64874797312754
H        -0.12095008851669    4.11033341697387   -3.93837437772658
H         0.54474087430224    4.93258672725364   -2.50377258417644
H        -0.96021039197521    2.62312671452500   -1.91355867988786
H         1.50601317863038    1.50364429784750   -4.02545177219750
H         0.06401489233109    1.56456651236222   -2.91579310846168
H         1.12605247449189   -0.86324518594049   -0.67374359326604
H         0.32304352332302   -0.93254576973135   -2.24497130633124
H        -0.27112016658007    0.97333258451471   -0.05076607156425
H        -1.26739102372400    0.14753928162922   -1.12984211431190
H         2.47050023531009    1.82667385862902   -0.60619423295448
