35
 energy: -49.728643270719 gnorm: 0.110500307631 xtb: 6.4.1 (79825abcba525fcdf90b791dcacef51065a7a4e7)
C         3.63176211463787   -1.28176737417169   -2.62115874552540
C         3.10525840339394    0.04191220189380   -3.15608928293983
N         4.09366814409451    1.12890169665543   -2.89650878226580
C         3.70035300763046    1.70623652063544   -1.79795693944722
C         4.20708766018735    3.09011866141534   -1.54252555596533
C         3.71711839509110    3.73960910122657   -2.84230033728616
N         4.50663350206914    4.29365037478015   -3.70794979017261
N         2.40158619341768    3.64692717304098   -3.26514181532908
C         1.20579440889816    3.01195165444570   -2.67794929615212
C        -0.03174055675662    3.78271796857653   -3.20620901970560
O        -0.19230001926050    4.94541355348177   -2.39330951893217
C         0.95713449387701    1.52227015470951   -3.00243166993483
C         1.87752116817234    0.49497823495268   -2.28304902841951
C         0.92124841623127   -0.65377712667222   -1.83561173955655
N        -0.08485974045176   -0.02115822885218   -0.96840836429509
N         2.58284979687216    1.17544224117702   -1.17894884222052
H         4.67710932483501   -1.46282535167557   -2.89818744742598
H         3.05471210535396   -2.16386591520773   -2.91790363789328
H         3.61535802995315   -1.30941681355328   -1.52968539069416
H         2.83333228987979    0.00689487515343   -4.21983004076048
H         5.29934485218704    3.06963256353849   -1.50757288158546
H         3.67535352267370    3.52123906934191   -0.69201511583222
H         5.50279256341948    4.37893048850199   -3.47005908494723
H         2.28610264935480    3.66491126404083   -4.28113675407979
H         1.16668171988122    3.10290804986538   -1.58398539617177
H        -0.96262340125940    3.26809568493725   -2.94688561067448
H         0.06124919478490    4.14170574811348   -4.23887547473530
H         0.56299426608071    5.53390283323843   -2.58325206761928
H         0.96040381653653    1.37952677933405   -4.09132278015476
H        -0.09545811830693    1.32500797401533   -2.75837983745483
H         1.44790339474952   -1.43748742850473   -1.29166683424991
H         0.43093105874827   -0.92313549846568   -2.77938908446812
H         0.35918991604954    0.39670479849481   -0.15440164863073
H        -0.78394751567183   -0.70713557950682   -0.67908770437163
H         1.99311150553119    1.83649303834951   -0.67747692030336
