35
 energy: -49.711471613549 gnorm: 0.121280546192 xtb: 6.4.1 (79825abcba525fcdf90b791dcacef51065a7a4e7)
C         3.47618708273114   -1.61627055072463   -2.36699728904496
C         2.97384294606619   -0.36994394710226   -3.08100348201034
N         4.09811782019523    0.60962553870775   -3.12929075659900
C         3.82597779460342    1.50897481041299   -2.22821410636000
C         4.51399832333032    2.83330022713128   -2.32793809123276
C         3.56528272998323    3.92507834219086   -2.83713495347758
N         4.16017801426123    4.98123216702395   -3.29570175503949
N         2.20287315626282    3.81411876299645   -3.05970617301270
C         1.10558995370143    2.95054207013222   -2.58209561293473
C        -0.21757801142090    3.47171435174662   -3.20034948548719
O        -0.55123168051969    4.80924757347332   -2.82869631933196
C         1.21128710673157    1.53736234447801   -3.19693116613846
C         1.91291626461520    0.48349103174870   -2.29303762245438
C         0.95971343805918   -0.27669138782815   -1.31947525320073
N         0.17932326298261    0.73475374567789   -0.58976851961759
N         2.82364178117976    1.15332717015892   -1.34358747537958
H         3.70162240469757   -1.27702178181292   -1.34897622867608
H         4.39094481836206   -1.87517823605755   -2.91043742856028
H         2.83402932122733   -2.49332491873930   -2.26328269604927
H         2.72801741322893   -0.51873340560304   -4.14126097147766
H         5.33750542423882    2.81760818848270   -3.04644832434946
H         5.01355827498406    3.19548895476936   -1.42725325325417
H         5.18087696594256    4.95273437027015   -3.17925824101320
H         1.89078830760710    4.57123250073118   -3.67231325105075
H         0.97409006384929    2.96913118947069   -1.49171856181490
H        -1.00328441386532    2.82128165136878   -2.80256769227611
H        -0.18546025758678    3.59498961515515   -4.29016185289595
H         0.15320810721968    5.17703096287205   -2.26180371422561
H         1.77596986062404    1.64997295659190   -4.13209022677544
H         0.27423915214508    1.01703067231115   -3.43697485168353
H         1.63829341108043   -0.86168653889896   -0.69919042087453
H         0.31531387841298   -0.92056697417436   -1.93091140048363
H        -0.67146667404999    0.29151869669143   -0.25198794356227
H         0.85375812181987    0.98638785444041    0.13467125522824
H         2.43759146005823    1.95884857564473   -0.85537244239884
