35
 energy: -49.726836436657 gnorm: 0.100248109895 xtb: 6.4.1 (79825abcba525fcdf90b791dcacef51065a7a4e7)
C         3.63642123351247   -1.34926268340774   -2.85030391325392
C         3.06428677064829    0.02690728656797   -3.15739154898165
N         4.13636992142716    1.05591455220939   -3.02448644530246
C         3.85624123437889    1.71709725480988   -1.93857955145413
C         4.31128411854614    3.09940695187740   -1.59316554841542
C         3.66654238804054    3.83797262351386   -2.77221221251154
N         4.29885320976249    4.58731529923574   -3.61974592072796
N         2.32174878807338    3.73146735816311   -3.08557563178482
C         1.19511359001263    3.02728267763597   -2.44313962166144
C        -0.08534482682828    3.83674769386532   -2.77453735888485
O         0.04990832340947    5.21455162229284   -2.42552607590455
C         0.96396724486229    1.56338305740337   -2.87884686004745
C         1.88714389277961    0.49562154541679   -2.22494937514816
C         0.96208024041130   -0.68130796954242   -1.78518729099046
N        -0.41197738272989   -0.40826051767339   -1.33584033158396
N         2.75498491555283    1.21302247534880   -1.27009609537232
H         4.11076207393417   -1.25052151569118   -1.86667357958509
H         4.46399986098991   -1.55270937898554   -3.53795581589475
H         2.97776490828996   -2.21536806808192   -2.94185155707841
H         2.75314833610455    0.07206182160893   -4.20994480842827
H         5.39503337915014    3.15767436010250   -1.72262439971477
H         4.02663037386328    3.43619860120808   -0.59440750752267
H         5.31584957515931    4.65419153827085   -3.48767198925372
H         2.04780408458049    4.28305489040077   -3.90203817528002
H         1.31774585696333    3.08955619761485   -1.35334917663241
H        -0.86687953381082    3.44061605817581   -2.11809937411867
H        -0.44368790628032    3.76257939709890   -3.80894957100059
H         0.73944171267551    5.62468659412734   -2.98158387003273
H         1.26915988384287    1.45966963732902   -3.92869027425367
H        -0.07253660106718    1.26251860728627   -2.67497133817215
H         1.56308119845401   -1.27940828062360   -1.10070411241146
H         0.83179952070090   -1.18915857830294   -2.74892761098825
H        -0.54171325455485   -0.38703542568017   -0.32731931999146
H        -1.07640958163907   -1.11702520002068   -1.65076501935198
H         2.30737737783626    1.70157073550005   -0.49729497784684
