35
 energy: -49.715039058040 gnorm: 0.125006140878 xtb: 6.4.1 (79825abcba525fcdf90b791dcacef51065a7a4e7)
C         3.58226379934754   -1.51491774339639   -2.78693622890434
C         3.00711657836664   -0.15767449466635   -3.16453508571245
N         4.07601145589522    0.87107361720438   -3.00634822503474
C         3.71522586413859    1.62630309084001   -2.00920699052799
C         4.30742001686564    2.96602098234450   -1.70652394500583
C         3.70554802280961    3.89899081405485   -2.76418154869109
N         4.32990737943323    4.88021792013674   -3.33603256223157
N         2.45293433810681    3.61748841169032   -3.28353229934912
C         1.18147036910685    3.04293821488186   -2.80272213711264
C        -0.14232465816516    3.72948097400758   -3.22799567096450
O        -0.28835581172220    5.07868328872037   -2.78440355427239
C         1.08597721691840    1.53944538711203   -3.14428022106656
C         1.80462450628176    0.42338912402041   -2.33315988118072
C         0.92677606554054   -0.57724548956757   -1.51927471154690
N         0.08764343131075    0.17039703496259   -0.56985959388174
N         2.61376689023363    1.14034704307778   -1.32776596559736
H         4.56058830147487   -1.46609955701681   -3.27965891173244
H         3.05717445867695   -2.38338335756208   -3.19826425296702
H         3.69171677931072   -1.60703271483542   -1.70440098819631
H         2.93362315971243   -0.22926751001715   -4.25823869471981
H         5.36353777477716    2.81856712378970   -1.94639849122500
H         4.07144326856042    3.27766340485048   -0.68712805481153
H         5.29259463849093    4.80640726919459   -2.98392064183318
H         2.19004303969077    4.25966435049503   -4.03480044970745
H         1.17235069053192    3.06572162747200   -1.70456111079390
H        -0.97720611456909    3.17001377250185   -2.79371811500915
H        -0.16727671559433    3.83542084538713   -4.31981684054961
H        -0.04238479885595    5.14903766842580   -1.84237606956323
H         1.60864041374780    1.42860240259040   -4.10376302221952
H         0.01627232704236    1.29679008863301   -3.08705489753988
H         1.52841578455183   -1.30862498462684   -0.98024127229607
H         0.28662880533014   -1.03167685812416   -2.28568474206301
H         0.66614280043233    0.41387369062107    0.23042419262861
H        -0.70013804720763   -0.37193576242983   -0.21171078953966
H         2.05776709329911    1.80319856683206   -0.79134674055865
