35
 energy: -49.716539568571 gnorm: 0.130360881038 xtb: 6.4.1 (79825abcba525fcdf90b791dcacef51065a7a4e7)
C         3.73639160624917   -1.31570697956224   -2.70204771143048
C         3.05773509791875   -0.00009085309722   -3.05427489418826
N         3.91113074297580    1.19751512519473   -2.80260487101306
C         3.60473986893475    1.76338890786644   -1.67090706375597
C         4.15990235826311    3.14554629092346   -1.53456001167242
C         3.70575628981358    3.80161482539227   -2.84400555216816
N         4.51770901831873    4.35508540323084   -3.68901910263734
N         2.40087544108035    3.65122524745440   -3.28295747804764
C         1.25001256633038    2.95736798223937   -2.67305279900697
C         0.02044089647764    3.75025701196235   -3.18697141207721
O         0.03635583823225    5.09864094945300   -2.71787287931590
C         0.99311511858887    1.48141106337221   -3.04965128139153
C         1.81450052727079    0.46259719876790   -2.20864235398248
C         0.95896048079972   -0.71101148937830   -1.63856302761635
N        -0.32636521369699   -0.16733116251068   -1.17288981774696
N         2.49564645584517    1.16335220120901   -1.10205318362182
H         4.43610880227451   -1.55355665771763   -3.51204836470896
H         3.03977035519106   -2.15904487643908   -2.65064633697500
H         4.32263889506502   -1.36948099514747   -1.78239009475804
H         2.82147935763127    0.11512417308393   -4.12086907381684
H         5.20878098362964    3.22211448870148   -1.23680497163295
H         3.65119890048140    3.67310474498528   -0.72531537715689
H         5.50860939043126    4.19566784459486   -3.46788551989724
H         2.30910242200926    4.04996239978016   -4.22023651477874
H         1.41038825932844    3.11831806116514   -1.59837396326793
H        -0.93972560997734    3.40774421275350   -2.78773105984108
H         0.04751639705103    3.78778021246735   -4.28322788668015
H         0.88274154947718    5.58328692699445   -2.67766387927603
H         1.16090500231959    1.29424999196760   -4.11871044616129
H        -0.06444369457139    1.23379584702434   -2.88630828224776
H         1.48028929973113   -1.34430291815359   -0.92120566625952
H         0.66689281827328   -1.22978005991791   -2.56011409490894
H        -0.15919073627459    0.63329136243237   -0.56836289061995
H        -0.89920204852208   -0.82911226388247   -0.64667805585390
H         2.00993709292236    1.62073209998120   -0.33319460164756
