35
 energy: -49.715837310051 gnorm: 0.104913456183 xtb: 6.4.1 (79825abcba525fcdf90b791dcacef51065a7a4e7)
C         3.48115568112927   -1.32810909195298   -3.31711532970538
C         2.97742353024556    0.10276129809223   -3.19733112501169
N         4.05145756515862    1.12279214994932   -3.01880961606840
C         3.79192328216804    1.66345644134880   -1.86332162920582
C         4.12443585218727    3.07498567726633   -1.49702183926221
C         3.63369400340881    3.83583845590949   -2.73459918422478
N         4.34849829111761    4.75656043987005   -3.30114191476368
N         2.41716879334877    3.49287433753998   -3.30068386664518
C         1.23273335398297    2.96840320760017   -2.59361266297015
C         0.09325889472900    3.87007085813715   -3.13511541728649
O         0.34549023755052    5.24718543717348   -2.85514981140837
C         0.91420348338456    1.47112386083525   -2.80089214149644
C         1.87971416890664    0.45459545837718   -2.12679217225002
C         1.04717402621369   -0.73765361611214   -1.56135822968932
N        -0.12484960700633   -0.33888112824669   -0.76647267061855
N         2.73642343434678    1.13954678802234   -1.13863844033135
H         4.04993563973940   -1.75249448424235   -2.48125405845224
H         4.19075148743315   -1.32713175175018   -4.15115064763259
H         2.65010122564732   -2.00533190370995   -3.52463741455690
H         2.57479236804961    0.33360078538902   -4.19297950165964
H         5.12513504791913    3.48618821713198   -1.34152030994430
H         3.65954128732172    3.48377751090283   -0.59772418212007
H         5.17918188893922    4.90938221327331   -2.71564397562130
H         2.27068446355396    3.97831931859611   -4.18882299151310
H         1.29202537198584    3.28558661993578   -1.54364170252890
H        -0.80320303752249    3.52280867162930   -2.61129047309822
H        -0.06954515144424    3.70119635263754   -4.20698088041026
H        -0.39195505396299    5.85587605512981   -3.05145934411126
H         0.93101199789293    1.22136739289224   -3.87019536185830
H        -0.11566342560033    1.28160577243800   -2.46940774938265
H         1.64422858842520   -1.42103127499847   -0.95806380541263
H         0.72473387712350   -1.32220992522028   -2.43199418358987
H         0.10393906382309   -0.43898790584268    0.21944360973311
H        -0.85516734451612   -1.03947876392089   -0.90356401846707
H         2.47130759590680    1.68823282313094   -0.32321788086820
