35
 energy: -49.720226664013 gnorm: 0.126304499765 xtb: 6.4.1 (79825abcba525fcdf90b791dcacef51065a7a4e7)
C         3.63664289955155   -1.33541006525686   -2.86960361965710
C         2.96296285100716    0.00405042604417   -3.12938281714580
N         3.99223094267356    1.06438616597823   -2.92401162693602
C         3.71546832737236    1.69362314130971   -1.81843859846739
C         4.26996167792597    3.07650378868655   -1.68678298604189
C         3.69583518231994    3.79386960770912   -2.91441780160465
N         4.34282488553872    4.72190794730962   -3.54671044019455
N         2.41700770660226    3.58623882592902   -3.40380473924246
C         1.21066510576223    3.01685585354658   -2.77257774741763
C         0.03003014984002    3.77514097970013   -3.43268122205415
O        -0.24248969745518    5.00972284735194   -2.76936643952494
C         0.96331864568780    1.49382991597383   -2.84662656395867
C         1.86592009693447    0.46870644618997   -2.10205677209220
C         1.02465429139963   -0.69927592376437   -1.50007206716549
N        -0.04136635654765   -0.23743972117519   -0.59740420248522
N         2.61465123864963    1.25708021233591   -1.10334488938966
H         4.37655394973900   -1.53944330572395   -3.65266157161532
H         2.94295526273780   -2.18085718322001   -2.81340119378756
H         4.13475840290375   -1.43465237688359   -1.90297050705129
H         2.60568383006224   -0.01513169326782   -4.16798676920475
H         5.34747646396266    3.25986494200987   -1.68400572211053
H         3.82382191051637    3.43557532343541   -0.75726647261964
H         5.26991090545700    4.82434171287989   -3.11518245113712
H         2.11792906685237    3.91956099278117   -4.32323602381431
H         1.25331879946897    3.32007671573615   -1.71768549907512
H        -0.91143261299105    3.23128616738695   -3.30423900704818
H         0.23733646409841    3.93780918979641   -4.49780209496928
H         0.56447545686383    5.55635123556325   -2.82295660357534
H         0.76879198836148    1.09825747844483   -3.85248541225758
H        -0.02674366741980    1.36081700073924   -2.38999864094803
H         1.81709943399220   -1.23484227372550   -0.97792002887609
H         0.51560893365129   -1.26151968087131   -2.29281129714880
H         0.48052649611358    0.16805150468117    0.17564253366315
H        -0.67769717242436   -1.00923971961683   -0.39148446017222
H         2.00407376952538    1.83834908747227   -0.53275297157227
