35
 energy: -49.723139942899 gnorm: 0.121917800380 xtb: 6.4.1 (79825abcba525fcdf90b791dcacef51065a7a4e7)
C         3.60608632303615   -1.34285452754196   -2.79192776870372
C         3.07247173567415    0.04138096352194   -3.13050126612667
N         4.14027428992025    1.07198656494560   -2.97710049265743
C         3.75866926946988    1.66544062252059   -1.88301717144964
C         4.17021429984107    3.06091446460210   -1.53597483679350
C         3.61528224545383    3.83601492251169   -2.73705430024985
N         4.37497779965703    4.61881380626788   -3.43686382960492
N         2.38598499204881    3.55643377674336   -3.31035393197829
C         1.15805193424580    3.05258671720084   -2.66519852468396
C        -0.05358240541029    3.87335342413526   -3.17795192801537
O        -0.02873882566599    5.23864525115447   -2.76105029510128
C         0.86862935422847    1.55611211059392   -2.91633561091647
C         1.81452818655293    0.48723919168327   -2.29767759594883
C         0.96428804989331   -0.70904075501263   -1.76824152890379
N        -0.06981932654942   -0.21927625196256   -0.84344174630015
N         2.66583917224827    1.09463747411793   -1.25561527858929
H         4.61840954510536   -1.51162736388942   -3.17792660580628
H         3.01062240689269   -2.19729369590448   -3.13030405125737
H         3.56096733199333   -1.48627432513860   -1.71038132763737
H         2.91699212383955    0.09843337549752   -4.21645040284688
H         5.24084322347400    3.27273281115328   -1.47636085867965
H         3.76001722142251    3.26736278474753   -0.54547423455253
H         5.33607249484008    4.80464857498694   -3.12387823184219
H         2.27200366927605    3.65435532055051   -4.32194931084622
H         1.27942492372837    3.22293033981745   -1.58686113415652
H        -0.90701646252514    3.34331033952831   -2.74282868872914
H        -0.08585001343276    3.78973393338251   -4.27151761257918
H         0.93180292683012    5.41211292453647   -2.74939826624395
H         0.80269412551623    1.37523244890376   -3.99754109472102
H        -0.15459601297740    1.44067166581967   -2.53409456372135
H         1.71430603698481   -1.34220594797702   -1.29493589693958
H         0.54448693310284   -1.30797222784641   -2.58599993834181
H         0.34674227708164   -0.11595147064820    0.07861950892143
H        -0.94830745406533   -0.73288161836024   -0.75705182043409
H         2.15142932174244    1.61527172319722   -0.54810134291496
