35
 energy: -49.722048413746 gnorm: 0.105436309547 xtb: 6.4.1 (79825abcba525fcdf90b791dcacef51065a7a4e7)
C         3.63471449784594   -1.40547299193533   -2.81545051407411
C         3.10548614421709   -0.01137757366542   -3.11860022640296
N         4.08952066468937    1.08853608970385   -2.90008708645517
C         3.69634016634752    1.73499704696365   -1.84068831650228
C         4.07025364008035    3.14264712411942   -1.50029893414876
C         3.59234725544259    3.85508694805206   -2.77126596050326
N         4.32741986771058    4.66078707443054   -3.47138050303772
N         2.34089221869602    3.59424810645449   -3.30402597135824
C         1.13338654023881    2.94926407307670   -2.75281585965487
C        -0.08915695801557    3.75998735407586   -3.25555533543753
O         0.25433004891842    5.09040953424468   -2.86769006905021
C         0.93572915036724    1.43793493477279   -3.00398771085391
C         1.89347099427523    0.47713361772856   -2.24271044906861
C         1.01369655617691   -0.63753041302624   -1.59632233397622
N        -0.13086921001659   -0.15826825294084   -0.80589273033229
N         2.57401185644712    1.25584887849791   -1.18913386376471
H         4.51683404037873   -1.64928216947103   -3.41935437801920
H         2.96896468470375   -2.21024127928471   -3.14449042893289
H         3.87011318906556   -1.52316760595840   -1.75569436393608
H         2.83170766221543    0.02233520194019   -4.18190790090455
H         5.12411533221239    3.29357469608097   -1.25278421024197
H         3.56161371273411    3.42040500579524   -0.57503681798960
H         5.26000571919261    4.79930075990294   -3.06236319809100
H         2.52738216583421    3.54838052096084   -4.30852747098107
H         1.16894113521739    3.24277246722977   -1.69491767009260
H        -1.02619835439339    3.46607377889194   -2.77161750765099
H        -0.21399943742160    3.77923780515625   -4.34549253610150
H         1.15949920110225    5.20184153529087   -3.21571158802620
H         0.75896627418959    1.05119095204272   -4.01653606231864
H        -0.06971697615617    1.28005224290753   -2.59097920662696
H         1.71917351014077   -1.27205887536768   -1.06048722967693
H         0.53229845156046   -1.09262341220578   -2.47086618166226
H         0.08736530088494    0.56225186097159   -0.12206453621302
H        -0.53541987351926   -0.95972233138849   -0.31906092529656
H         2.01972916442772    1.77572500353547   -0.51182079280790
