35
 energy: -49.711009687002 gnorm: 0.114635605247 xtb: 6.4.1 (79825abcba525fcdf90b791dcacef51065a7a4e7)
C         3.67501935979993   -1.49377021773815   -2.60687521841618
C         2.98599322925077   -0.22989490167857   -3.10017694838250
N         4.06799600544474    0.79621655230291   -3.14758235931654
C         3.84206756670372    1.55802270248823   -2.11635195333312
C         4.53025155608034    2.88560858653258   -2.08358836450293
C         3.49093253924370    3.86897821973749   -2.63506128674833
N         3.51969906954446    5.13675336763632   -2.36754771489385
N         2.38851977348783    3.50612159689411   -3.39072726864871
C         1.17018757130395    2.96345802624144   -2.75899160864346
C         0.05398753176045    3.79867271452089   -3.43806875236622
O         0.10736371307367    5.20035072333678   -3.17180627108466
C         1.03493960149415    1.48033684048244   -3.16927335268766
C         1.83664701464188    0.47703337114250   -2.29143564842569
C         0.94666453880232   -0.51652725823070   -1.48207479334833
N         0.15450933568762    0.16905210025701   -0.44913092289688
N         2.76627712785386    1.13849052483168   -1.35451558227015
H         3.79505796696012   -2.15132152114061   -3.47606719632818
H         3.15839216134939   -2.10405450315552   -1.85868306554389
H         4.69357150346010   -1.28245952915951   -2.27484060634797
H         2.50110396247267   -0.42169779887567   -4.06703188349140
H         5.41280088553231    2.88048507649073   -2.72837327157700
H         4.73141480910890    3.17120779886350   -1.04920910913373
H         4.34467952464213    5.39395296616470   -1.81126254610416
H         2.09609035665035    4.44210259364377   -3.68112397720526
H         1.12773059489419    3.01276221411807   -1.66248515289739
H        -0.89879945737524    3.32728831048879   -3.17611207611599
H         0.23055734937914    3.69728596655658   -4.51624460468966
H         0.30590063156983    5.32633195276859   -2.22439976723414
H         1.41414002659777    1.36199073848855   -4.19312463703988
H        -0.03966256384943    1.28672089749451   -3.28830241133952
H         1.55522771808909   -1.27459289345884   -0.98970227339944
H         0.23527106797589   -1.02429429849155   -2.14522836512770
H        -0.16065020578241   -0.50303907554019    0.24611324416181
H        -0.64981077449931    0.58022187563290   -0.92557993414816
H         2.41915003887540    1.65288956458056   -0.54757699789911
