35
 energy: -49.716912213139 gnorm: 0.117203115525 xtb: 6.4.1 (79825abcba525fcdf90b791dcacef51065a7a4e7)
C         3.46198870954852   -1.41655568542755   -2.34408436723910
C         2.83627179974122   -0.11756515658690   -2.83048584018203
N         3.94216581086808    0.87703794736832   -2.94729811359441
C         3.68831892345010    1.80427642862602   -2.06944904719088
C         4.23453542021469    3.18498690626940   -2.24956305908485
C         3.54313262257063    3.67624937916854   -3.52703930342827
N         4.13947781863965    4.15531130908878   -4.57323091502744
N         2.16350208092535    3.79685602120176   -3.51790308740617
C         1.28222491162742    3.18441211694542   -2.50490258820914
C        -0.06069484859954    3.95070408711828   -2.38660224048882
O         0.27023285764356    5.27140004514740   -1.95684067214177
C         1.00199012786265    1.69542233904158   -2.80598307530585
C         1.82154080648188    0.69349411478818   -1.94318054369781
C         0.95793321091811   -0.21108294998983   -1.01032534907953
N         0.06605502253851   -1.09831518312527   -1.77313216173500
N         2.76799358325669    1.44968290959468   -1.09940177874295
H         3.69426298456421   -1.29129646608200   -1.27983041751160
H         4.42882593352785   -1.37176681379822   -2.85629704333733
H         2.82766076973498   -2.25710696580131   -2.63296024954937
H         2.31447002602970   -0.31387406168892   -3.77700585786957
H         5.28339171603538    2.98675905719654   -2.48466589436695
H         4.12209840848033    3.84473245954972   -1.38696946063667
H         5.16059464246222    4.07303367861183   -4.65537946541831
H         1.75072583909039    4.08144120848133   -4.40926869168562
H         1.87601597373896    3.38694031924504   -1.60326275095769
H        -0.77624217772295    3.50363376627013   -1.68892915134720
H        -0.40647569114757    4.07986882170507   -3.41988410658558
H         1.09788704913217    5.50193552422540   -2.42020790703998
H         1.22642448337437    1.48244024162936   -3.85970887297766
H        -0.07834324926929    1.59970350236823   -2.63236691007309
H         0.41897317035496    0.41021804287470   -0.29551732694980
H         1.72720755419644   -0.82581071006770   -0.52658215293434
H         0.55198826507964   -1.52304433113387   -2.55917959798298
H        -0.11594041892781   -1.84149770850996   -1.09670590490520
H         2.27969931130957    2.08341689188886   -0.46995485347218
