35
 energy: -49.723212303601 gnorm: 0.114634098976 xtb: 6.4.1 (79825abcba525fcdf90b791dcacef51065a7a4e7)
C         3.50381082987580   -1.49286695642667   -2.76152319474506
C         3.00476147443020   -0.09099829520226   -3.07964016219603
N         4.13461981720697    0.83394300811108   -2.77339567498653
C         3.68673358070418    1.66443421560458   -1.87645050708253
C         4.14198179487844    3.05885871327585   -1.58407362712437
C         3.60545038218681    3.91055098023487   -2.74082618594189
N         3.95935796771585    5.09870959462259   -3.11854740148481
N         2.50077531462677    3.38412462016777   -3.38934613744565
C         1.25754178340014    2.89504445214030   -2.76238683636907
C         0.14336444616890    3.81072729545949   -3.33226895608777
O         0.36335815123378    5.16895289499098   -2.95112337858828
C         0.92450124614201    1.42951975829639   -3.11958834572576
C         1.76776294888112    0.43987260880958   -2.26550411529860
C         0.87718844647112   -0.70227332358546   -1.68526602687908
N        -0.08286663476684   -0.09704409596860   -0.74905355720549
N         2.51695823812798    1.23708489294758   -1.27418384113178
H         4.47670842575791   -1.63558199965605   -3.24668333209563
H         2.93629380312011   -2.36918568119525   -3.09187449483593
H         3.61052707098388   -1.55152680523371   -1.67638802981067
H         2.81456468226183    0.14410901652140   -4.13570083132175
H         5.21229196924734    3.27619318192241   -1.54084202222713
H         3.84500317053725    3.29670569918129   -0.56074255834501
H         4.89539671264947    5.34477086365987   -2.77288444082078
H         2.30596961269033    3.96069608698309   -4.21124740299710
H         1.17911013961925    3.08639947824199   -1.68359509798533
H        -0.86659068297950    3.58733315736980   -2.97350261351097
H         0.11566596381187    3.83844599562892   -4.42880157978701
H         1.30919370610607    5.39126922645282   -3.04513301927628
H         1.07269370432989    1.30401720124980   -4.20049458680684
H        -0.13209981233054    1.23938182149626   -2.88749647925487
H         1.55062627448893   -1.42613107956076   -1.22705778771081
H         0.28910272084181   -1.11826249086881   -2.51278575085518
H         0.43403109899026    0.35064486601831    0.00379959214399
H        -0.42695580451473   -0.85960781003583   -0.16331102787592
H         2.02620139660085    1.64777737453881   -0.48251291606514
