35
 energy: -49.725494404133 gnorm: 0.106661701318 xtb: 6.4.1 (79825abcba525fcdf90b791dcacef51065a7a4e7)
C         3.33660063268985   -1.44165985811390   -2.59266995846415
C         2.79685111822386   -0.08304646072807   -3.01495484342187
N         3.90209220029425    0.91463331922632   -3.10960784326407
C         3.81050207369127    1.68506876707574   -2.06420415677787
C         4.45430030310641    3.03513365518987   -2.06232502606743
C         3.78865254637969    3.94305886370032   -3.10343359440745
N         4.24558014944345    4.95312225055715   -3.77472631784658
N         2.56246606054179    3.46446014794633   -3.53403763389680
C         1.47100716139089    3.13793731794333   -2.59595057641010
C         0.43747855559606    4.26085234287291   -2.87074559579534
O        -0.56547161019131    4.34888472145870   -1.85842784842642
C         0.99641389934318    1.67807564333838   -2.76868352852236
C         1.83557211390658    0.62459328976103   -1.99026198527211
C         0.91702216116660   -0.25670336477146   -1.08810970989054
N        -0.25149307396332   -0.66410383865996   -1.88378487471037
N         2.85080531460899    1.28964086218610   -1.14968468331035
H         4.15174175677572   -1.36781310744542   -1.86303355584634
H         3.80501177729725   -1.88238674656092   -3.47895032570296
H         2.57067849592026   -2.11918150555164   -2.20968777088459
H         2.30060870080601   -0.29797485470908   -3.97112619522423
H         5.50256070138945    2.93749777089269   -2.35606726544761
H         4.54482597428933    3.42496601650143   -1.04654462975162
H         5.18319017243138    5.23804330561760   -3.46504099388607
H         2.18095201561943    4.02090726385879   -4.30262025947730
H         1.87132875488121    3.27082871676047   -1.58173048602932
H         0.02829508750880    4.10930399901791   -3.87485195549892
H         0.98948031671636    5.19414064911448   -3.03863342447068
H        -1.23120166702834    3.64291756101553   -1.96464046518182
H         1.10847168788863    1.39799215618352   -3.82465062346639
H        -0.05276694279880    1.63483950910502   -2.44654215593873
H         0.61909302349915    0.36897964449410   -0.24715646523935
H         1.48387550414499   -1.06769850062262   -0.61414254588738
H        -0.95037998172542   -1.01770513254738   -1.23500158815750
H        -0.06371483608112   -1.36986384012575   -2.59767368712469
H         2.64321684396925    2.04314728718530   -0.49746649145383
