35
 energy: -49.720626095822 gnorm: 0.110753359125 xtb: 6.4.1 (79825abcba525fcdf90b791dcacef51065a7a4e7)
C         3.72038804105207   -1.33084095606786   -2.40464004285979
C         3.13415865148315   -0.10105331504175   -3.08246149398499
N         4.06499624563101    1.06081600412880   -2.98508040213046
C         3.69012228062131    1.72372026286846   -1.92921303386145
C         4.22101682988635    3.08767979907884   -1.62112159856302
C         3.64044244213148    3.86932477999349   -2.80572562804857
N         4.38003802226139    4.62087676420790   -3.55925916573660
N         2.36502229504139    3.54374640168879   -3.23620442287410
C         1.15027532073718    2.99541869785853   -2.60245883600172
C        -0.11582103037999    3.84782507878083   -2.87638436041363
O         0.21828153757863    5.21534710862148   -2.63825640078612
C         0.96876176769398    1.51314868373075   -2.99768025159410
C         1.88033609053339    0.45525417108209   -2.31222918767572
C         0.89103721819999   -0.68140367320462   -1.90776252961701
N        -0.34019790420960   -0.12184506867835   -1.32857670006565
N         2.65238047996874    1.11878661558022   -1.24301025467530
H         4.81677374506813   -1.32976183039090   -2.41929976570644
H         3.39799906920310   -2.26409278470516   -2.87818883432179
H         3.50162715522684   -1.23949558616312   -1.33873790409017
H         2.96043638181505   -0.24720185281750   -4.15725245205468
H         5.30556047267193    3.18326741093678   -1.71753345417221
H         3.85284316981976    3.34284794434614   -0.62547538638899
H         5.37662676349990    4.74988406007870   -3.34393254323260
H         2.20834709017103    3.74661518596105   -4.22625630489245
H         1.28203584526763    3.09666623534889   -1.51666512469235
H        -0.83645755606620    3.67658145835168   -2.07016713763629
H        -0.63349264701893    3.72051108535027   -3.83540811278563
H         1.03788918751962    5.39044018824256   -3.13870916992445
H         1.12968310637086    1.47624444132661   -4.08341162617197
H        -0.05367831597075    1.13068256262091   -2.87618616689676
H         1.35505730093327   -1.35839660647947   -1.19095760738310
H         0.68996656154799   -1.26419648234992   -2.81528875609840
H        -0.28140053186220    0.27244196329263   -0.39290734377810
H        -0.97675475154951   -0.89824750311111   -1.14152128664674
H         1.96433961759915    1.58817500961064   -0.65775150415992
