35
 energy: -49.714627609282 gnorm: 0.117822341557 xtb: 6.4.1 (79825abcba525fcdf90b791dcacef51065a7a4e7)
C         3.53558162022380   -1.64218579362764   -2.96408811199031
C         2.98327091840386   -0.23982416683456   -3.17341843666900
N         4.08770191214107    0.76303388558164   -3.15367230941411
C         3.88827946305684    1.54970114917417   -2.13572647677052
C         4.45770506640209    2.90590697182034   -1.86440529664521
C         3.61934860534933    3.96109276048553   -2.59588570946639
N         3.98264668354178    5.19893866690589   -2.71996971235270
N         2.41380177352746    3.65281456286962   -3.20385877665661
C         1.19328718082851    3.02393460554948   -2.66278472713541
C        -0.03504683481073    3.69577026248995   -3.32946625000397
O        -0.18058074673652    5.06731341347258   -2.96050117160817
C         1.09377210866534    1.52176280904008   -3.00897571905148
C         1.93911520653682    0.46998510734299   -2.23495349204109
C         1.04451056901525   -0.55612568626492   -1.47267025249825
N         0.10318024853896    0.04745881292694   -0.51659235262448
N         2.81084230739827    1.23959186575518   -1.32536334051517
H         4.09266915240824   -1.62050197245177   -2.01991600149204
H         4.15476677157217   -1.94437315374434   -3.81522536594048
H         2.68216577261322   -2.32232723394526   -3.00199164918535
H         2.70425439405535   -0.07141859869777   -4.22246741808425
H         5.49199166446196    3.01067188409415   -2.20195927128058
H         4.44326667709886    3.29082344806151   -0.84283550312559
H         4.94568152245644    5.47471177628048   -2.49038170269953
H         2.03704102992906    4.51167142829750   -3.61168453120839
H         0.96403751253433    3.16305594748172   -1.59758534097807
H        -0.98265944324344    3.23197476659735   -3.03697405887706
H         0.16219747670065    3.66668738405976   -4.40843251740746
H        -0.43219362019793    5.27815849941268   -2.04120656625834
H         1.27001947546448    1.38679502922690   -4.08451780507193
H         0.03159535844659    1.26999149093113   -2.88725211497803
H         1.66253297217436   -1.23076729769718   -0.88076623460668
H         0.51875899315900   -1.21392069438953   -2.17592817974658
H        -0.35643712714415   -0.73134952895206   -0.05118288313925
H        -0.69868381030653    0.44390573326735   -1.00937927968828
H         2.51814412504417    2.07262169224745   -0.81876431690690
