35
 energy: -49.724404060595 gnorm: 0.108507466244 xtb: 6.4.1 (79825abcba525fcdf90b791dcacef51065a7a4e7)
C         3.66779104673290   -1.36424637245888   -2.96070748996794
C         2.93493580004600   -0.04348578877464   -3.14509588040789
N         3.92662516962756    1.05664241286680   -2.96578572958575
C         3.61974048853940    1.68697888515197   -1.86882349601503
C         4.20465505610732    3.04071675159763   -1.61897621795979
C         3.67856591458956    3.96117333322270   -2.72681739656118
N         4.29620897830273    4.94024170379118   -3.30955830210877
N         2.51353004011587    3.46658641848621   -3.28903179322407
C         1.25371981032517    3.00961147511335   -2.67100344734281
C         0.02196468426613    3.77877762496971   -3.21487342964728
O         0.10859810155380    5.18210164660354   -2.96663505713013
C         0.90373397200513    1.51937523230627   -2.87831326242954
C         1.76896260701227    0.42092105637754   -2.19660256605739
C         0.94611922493718   -0.74821268398151   -1.57182133688369
N        -0.11422815502314   -0.28459376039863   -0.66340354785853
N         2.60587149456690    1.06334998267355   -1.16392376317631
H         4.36921114530953   -1.42863219433440   -3.80103004063816
H         3.10140925001398   -2.29314680125836   -2.83621765414579
H         4.39666558955019   -1.31251042712056   -2.14928099842990
H         2.69027122335078    0.09986495031881   -4.20637068821820
H         5.29696162421462    3.01200982134518   -1.59234155396817
H         3.90589038964523    3.32697738864435   -0.60864532379593
H         5.25135841175183    5.06776849347717   -2.95231323207643
H         2.36355119112079    3.97365738665400   -4.16441226893424
H         1.32049764725427    3.33960478097673   -1.62543899885858
H        -0.87244812235388    3.44853086066384   -2.67673738965217
H        -0.16956117616745    3.54169417056743   -4.26892684540579
H         0.97072300868904    5.51044051431478   -3.28569851772651
H         0.94835866616421    1.39905883974771   -3.96900240555208
H        -0.14272201853335    1.36713243690623   -2.58136739564205
H         1.66926673454616   -1.44986342042749   -1.15686679423235
H         0.54287222838124   -1.26277538945174   -2.45289896604222
H        -0.10074506734381   -0.51208419738499    0.32778908559104
H        -1.03315788576417   -0.27303176509839   -1.10885786519775
H         2.19942120037935    1.63445927043426   -0.42575995048170
