35
 energy: -49.724952473922 gnorm: 0.104961691126 xtb: 6.4.1 (79825abcba525fcdf90b791dcacef51065a7a4e7)
C         3.52005272730339   -1.44015938272715   -2.24195920605508
C         2.95107101029918   -0.27421014378015   -3.03713632566095
N         4.00478615446888    0.76571098183063   -3.22188068251336
C         3.83173040283027    1.59037413980714   -2.22950432911012
C         4.48334574218315    2.93268283789424   -2.12577500153577
C         3.78102448403279    3.82651605837090   -3.15491504012908
N         4.35551846182984    4.65670157517776   -3.96756102267010
N         2.40539986637938    3.79106996644295   -3.31115310959043
C         1.28816665305012    3.08602595181445   -2.65342225219363
C        -0.00533111628513    3.84676010301989   -3.04429170588012
O        -1.09725878505190    3.37078234442739   -2.25715442076848
C         1.23047238519244    1.64030354872077   -3.19455965746765
C         1.89052871110069    0.58793419693219   -2.25818572126592
C         0.83155615573675   -0.15982476357379   -1.39000930693104
N         0.28502782717927    0.94609705571767   -0.58829507083111
N         2.82903023938327    1.25793904749032   -1.33630428636515
H         3.59004763842629   -1.28156316367782   -1.15926551066827
H         4.51805064640329   -1.63782020962011   -2.64701776815181
H         2.95985104795531   -2.37432294663008   -2.31851106025330
H         2.64894764334773   -0.65584437575451   -4.02191610764820
H         5.52519581966812    2.82776062476003   -2.43915479125582
H         4.41279680132115    3.24857543739859   -1.08308199113271
H         5.37370228692098    4.69252425753015   -3.83259436024705
H         2.03833335187706    4.24701582553999   -4.14977170564109
H         1.33776172406090    3.16831387203185   -1.55919699162889
H        -0.24169777910325    3.72324406432919   -4.10613076525373
H         0.22538286038472    4.91544707028135   -2.95156326492216
H        -0.74468877249073    3.38572825964439   -1.34702351343154
H         1.73581223565513    1.70427489673213   -4.16749826471950
H         0.19376897749809    1.33270079460781   -3.38704726589335
H         1.41615400463509   -0.91531974358433   -0.86568491498304
H        -0.01094919152044   -0.55794877843222   -1.96911441940890
H         0.31532917108813    0.95813600460797    0.42823502390392
H        -0.72508867478249    1.03681392635126   -0.70842080138249
H         2.37204218119279    1.98712591949956   -0.79251947048259
