35
 energy: -49.722526370551 gnorm: 0.110950386296 xtb: 6.4.1 (79825abcba525fcdf90b791dcacef51065a7a4e7)
C         3.28049257962363   -1.48031251273665   -2.62392177592161
C         2.75266446196000   -0.11682986184742   -3.04558153194921
N         3.85162678823588    0.84747490603282   -3.34270120218245
C         3.91919074073554    1.57311049805607   -2.26394427601199
C         4.67060785158785    2.86136437169822   -2.15023758665906
C         3.76313761557004    3.80643275433103   -2.94689669280744
N         4.20383285917680    4.90453423656366   -3.47567421546822
N         2.54336597565579    3.46505174972787   -3.50691993103899
C         1.35892137554933    3.10316869241370   -2.70439975219685
C         0.24241040757023    3.94901499444799   -3.36966595899645
O        -1.08944404012351    3.59273490109436   -2.99862124606102
C         0.98472480718193    1.60961022140580   -2.82902534963674
C         1.87948452876339    0.65429461779114   -1.98835373481797
C         1.10717732090626   -0.25769772111035   -0.98530436295749
N        -0.01085008133592    0.51914246668340   -0.42759833686055
N         2.97796987232629    1.33828995196436   -1.27769402060308
H         3.60059650846329   -1.54078251351000   -1.57694779133578
H         4.14396603483380   -1.70855285995003   -3.25753207476773
H         2.51359455003063   -2.25508426526651   -2.68672146465611
H         2.19535535593833   -0.25615313080513   -3.98190946110570
H         5.56897476726904    2.83449937147623   -2.77223622100326
H         4.93622276984463    3.28851548080394   -1.18123571148346
H         5.21172453350430    5.08251512885176   -3.38253592248026
H         2.47111835766726    4.15877698171434   -4.25487126315010
H         1.46579143561235    3.51751430668432   -1.69273954448341
H         0.33281489137187    3.78934595061134   -4.44899928113744
H         0.37500915028718    5.01933322131353   -3.16778531827795
H        -1.24690449004943    3.64564215316130   -2.03670945782369
H         0.93091224744395    1.25875457993410   -3.86829177949381
H        -0.02966001974887    1.59268920030565   -2.40811922097941
H         1.74468076010335   -0.60169290306718   -0.17124047299508
H         0.69542613671900   -1.12719346442998   -1.51267406591217
H        -0.63988754210354   -0.09716463615141    0.08119824723212
H         0.40646209121744    1.15166290770817    0.25706473887880
H         2.86317966145736    2.16816546234674   -0.69943515567446
