35
 energy: -49.722361736966 gnorm: 0.110577324212 xtb: 6.4.1 (79825abcba525fcdf90b791dcacef51065a7a4e7)
C         3.62796702649960   -1.41186517720265   -2.60579026112417
C         3.06324910005518   -0.09702409436083   -3.12325622152184
N         4.12412986844803    0.91952947871498   -2.86434925716458
C         3.80431808249759    1.64197126692993   -1.82963834330096
C         4.26277008882361    3.05079765659531   -1.62424882948026
C         3.67306331399997    3.80987667990511   -2.81897353269535
N         4.20290476307609    4.80604058280761   -3.45660219598392
N         2.47677946703053    3.41456586399870   -3.39399018516684
C         1.26558803049194    2.95862606276900   -2.68473622432628
C         0.12382073092925    3.89494363933660   -3.15834857288429
O        -0.13346978804182    5.01783541537352   -2.31492602234550
C         0.97832089258531    1.48457863086574   -3.04658329968959
C         1.88063903676400    0.48665466163414   -2.26560865532919
C         0.97052297501347   -0.62993184193645   -1.66625910700163
N        -0.35504886099431   -0.11837301580833   -1.28459322519981
N         2.64189228703764    1.20191087152127   -1.22231628754072
H         4.22845638916086   -1.84421860953779   -3.41496311934250
H         2.86725521933967   -2.15001693967036   -2.33085100310877
H         4.29089259204715   -1.26381707331464   -1.75082879060928
H         2.72592197275287   -0.13766149434477   -4.16789655178467
H         5.33705453013070    3.20562400556637   -1.75312422774170
H         4.00855258756412    3.41746673294442   -0.62780453874425
H         5.13199170186836    5.10006285456448   -3.13018846633941
H         2.23665399814166    3.91562568210950   -4.25258462592188
H         1.24731932328655    2.99231867792123   -1.58696988321633
H        -0.75291251831959    3.27196783055377   -3.36296417227809
H         0.33000294355728    4.22669930949270   -4.18370041303831
H         0.44190326913659    5.76788432789336   -2.55831816123209
H         1.11735457978687    1.28382672790012   -4.11730199000114
H        -0.07113517983070    1.34117318716663   -2.75589153458450
H         1.42850917820686   -1.06075136882215   -0.77626667617817
H         0.77402312219307   -1.28429289342455   -2.52467633228431
H        -0.32041426473050    0.51780377531984   -0.49182839806192
H        -0.89426323076062   -0.92210318894385   -0.95861660390080
H         2.07789176183751    1.75271213930925   -0.57828613298583
