35
 energy: -49.720025340131 gnorm: 0.112301187322 xtb: 6.4.1 (79825abcba525fcdf90b791dcacef51065a7a4e7)
C         3.43520311393150   -1.46079186390519   -2.73032423209428
C         2.82386587995726   -0.10356118645054   -3.04603939293182
N         3.98396076209709    0.83263871779725   -3.10596908689762
C         3.83909263709897    1.72351480185188   -2.16778924541844
C         4.53204485665759    3.04582334952302   -2.07574451458005
C         3.75551109519922    3.85838642549693   -3.11884505199300
N         4.28259582614262    4.84660139622039   -3.77096286908556
N         2.56492369104896    3.33183561481382   -3.59134446934015
C         1.35259503652166    2.99947014091477   -2.81823427872035
C         0.17762910996081    3.87947374078516   -3.31791470793682
O        -1.00329662242828    3.72298933101640   -2.53091217463934
C         0.91265698877080    1.51961515396901   -2.87072459080192
C         1.83602044269716    0.58725488740358   -2.03522720565042
C         1.05663258450036   -0.35177923601129   -1.06308217635530
N         0.33287193226019    0.50672407131921   -0.11247997520317
N         2.77111996756885    1.48032858156972   -1.32279114277667
H         4.07622217932670   -1.45779562215644   -1.84073823642759
H         4.06977806680782   -1.82864632346569   -3.54342926359194
H         2.66445387771407   -2.22781119540258   -2.63045125368310
H         2.24547405124909   -0.23675549316319   -3.97039677061158
H         5.55730279801614    2.87869054606630   -2.41571496376638
H         4.47554870583428    3.36925990344252   -1.03450920933384
H         5.17375640416239    5.16493572799458   -3.37009675764423
H         2.52198695873341    3.78478553967905   -4.50725843720463
H         1.58511119888924    3.34498554859218   -1.80181152971454
H        -0.06719327510627    3.55078335774118   -4.33312513827664
H         0.48300045535753    4.92704615556504   -3.43306544715388
H        -0.87699275988188    4.42170860967920   -1.86105699256418
H         0.89660436455246    1.28678237538202   -3.94385151388081
H        -0.11250332914068    1.63092203779026   -2.49246284358479
H         1.84018570317735   -0.85818994889127   -0.50002263587205
H         0.39681059781621   -1.03907764577828   -1.60708265841760
H        -0.50990095113787    0.79249834962444   -0.60488576924159
H        -0.09104268016268   -0.03996400144962    0.63880135298132
H         2.28555248485203    2.21730220473544   -0.81549678699816
