35
 energy: -49.727009460427 gnorm: 0.111950790987 xtb: 6.4.1 (79825abcba525fcdf90b791dcacef51065a7a4e7)
C         3.73104271743429   -1.33671050423232   -2.52137251590638
C         3.04320149917760   -0.15056055936477   -3.18122646316692
N         4.01380320039515    0.98070522974194   -3.11757056613502
C         3.68704139550821    1.61600965579028   -2.02924917982586
C         4.22399665000443    2.97362692538062   -1.70411943259735
C         3.61932526858238    3.88527595396743   -2.77863827204217
N         4.20414573976136    4.84448520035765   -3.42481737799625
N         2.33134354169016    3.70588951874731   -3.25501354617645
C         1.19099873425129    2.93320051041880   -2.72541712170905
C        -0.07783625840667    3.72796663098730   -3.12919479835516
O         0.01491369720592    4.97919933894841   -2.44782843786397
C         1.00422141931057    1.46475735858195   -3.16707362689489
C         1.84597304061340    0.44250831170503   -2.35073252609236
C         0.90521228748208   -0.63975414575317   -1.73593681414379
N         0.23423595584106   -0.02376242348911   -0.58058104632306
N         2.61874869438843    1.12973235472612   -1.29712070842121
H         4.77454933667357   -1.47971841936243   -2.82620092020607
H         3.13686447976378   -2.24855347060905   -2.64235479282364
H         3.77660162657857   -1.07311464086821   -1.46269915691320
H         2.69642520717355   -0.40326087754964   -4.19246490277685
H         5.31060679403284    2.91371213973579   -1.60235626056328
H         3.89880810958609    3.25429607454541   -0.70040072752931
H         5.14951472044578    4.95080737482757   -3.03601067348857
H         2.11224429460329    4.16564600940201   -4.14187603819359
H         1.14557186334114    3.02012948637340   -1.63136975481918
H        -1.02618494554768    3.28472797085973   -2.80856752022279
H        -0.18551440657564    3.84563831363679   -4.21477211981589
H         0.88986475972217    5.29768807506874   -2.74090321637419
H         1.11403058216961    1.33167458995741   -4.25164779461024
H        -0.07294304046264    1.26765388836849   -3.08168147575798
H         1.50647463976732   -1.47726955709528   -1.38309848479913
H         0.22941128298378   -1.05294746349203   -2.49504484235489
H        -0.60913424916948   -0.55873201717305   -0.38840723802151
H        -0.01540326872015    0.88867840209905   -0.96545386558495
H         2.12109553260571    1.72793018637290   -0.64080205566875
