35
 energy: -49.718627068630 gnorm: 0.118599172781 xtb: 6.4.1 (79825abcba525fcdf90b791dcacef51065a7a4e7)
C         3.69617391512183   -1.24869239543884   -2.55809872503471
C         2.99325007877413   -0.01477190091515   -3.10474553440869
N         3.94042907561766    1.13327067755535   -3.00114931323921
C         3.62038410154287    1.79167220331947   -1.92462386498847
C         4.17374826509100    3.17029325731073   -1.75042000756899
C         3.57504383578016    3.96991200681855   -2.91381375618161
N         4.16556774400347    4.76250096515740   -3.75210310685314
N         2.37740869320391    3.43803521047048   -3.36190634086044
C         1.23414943691317    2.94922172435228   -2.56696822623437
C         0.05501328638392    3.77691061762311   -3.14072851578431
O         0.21201166503136    5.16472938556395   -2.84449122174548
C         0.87852697824334    1.46482893903178   -2.80441765831612
C         1.85698500731097    0.46285279729331   -2.12720621391911
C         1.06189389223559   -0.77161803705360   -1.59975157449241
N        -0.19350210612296   -0.30078536304983   -0.99411187857657
N         2.69431339676819    1.14852863605390   -1.12307140794369
H         4.74755417955455   -1.32792937857841   -2.85909493467284
H         3.05951015864971   -2.08753809055851   -2.85833070853353
H         3.52835783523581   -1.17251218456949   -1.48181715940471
H         2.68650523472214   -0.23647282338353   -4.13599269212301
H         5.24955863955511    2.99126542627452   -1.82286443421998
H         3.93146919009004    3.54903822217943   -0.75551947150206
H         5.14029196301055    5.03162971851556   -3.56858209135207
H         2.27216345472973    3.65751832218021   -4.35521202826264
H         1.39767978062550    3.34501972496217   -1.55545370091133
H        -0.85055000138987    3.43958989124053   -2.62614377454429
H        -0.13266835923713    3.65423763483777   -4.21480777905587
H         1.07158419461365    5.44287249448720   -3.21413799683453
H         0.79096716852151    1.28521206008101   -3.88429785849355
H        -0.10013067760574    1.23696283588384   -2.36087387103207
H         1.67723732284372   -1.36975089515060   -0.92816175050406
H         0.84698628626229   -1.41475308346446   -2.46223214367972
H        -0.08647001604016    0.30499990310138   -0.18419529220780
H        -0.75086721993389   -1.08796853011020   -0.65843067061962
H         2.23335241472833    1.36191505767618   -0.24089531755910
