35
 energy: -49.718611705523 gnorm: 0.104988125884 xtb: 6.4.1 (79825abcba525fcdf90b791dcacef51065a7a4e7)
C         3.43164459315853   -1.43524070643073   -2.78899463125430
C         2.95480000383230   -0.01759040153756   -3.06894331130834
N         4.03736219286265    0.98790001673938   -2.86174749921888
C         3.69196869379156    1.78374291025449   -1.89109523672684
C         4.24573383604157    3.17283721958328   -1.86082895729446
C         3.83501193799964    3.83126288939535   -3.18336640866268
N         4.67155382261032    4.52105318210909   -3.89331838050883
N         2.53530063168803    3.57442984962860   -3.58684766046052
C         1.41130723357069    3.14631673334094   -2.73170734583359
C         0.25482557402752    4.13977012745424   -3.01496048288381
O        -0.58937987183301    4.19127342581336   -1.86469506587999
C         1.06042342466431    1.67468568673181   -3.04388377202700
C         1.81048093366569    0.61127448760482   -2.19152117746990
C         0.89672557457838   -0.51670980866252   -1.61968284725722
N        -0.16476070550983   -0.13089703778384   -0.67686933146596
N         2.64530081127075    1.25441351573170   -1.15759426199422
H         3.17124674448575   -1.80587703262869   -1.79044601195149
H         4.47043733788713   -1.63793596265567   -3.07000412753811
H         2.86036488256114   -2.02701567507145   -3.50717952727294
H         2.55237106357891    0.01038053399856   -4.09069816786591
H         5.33433705609825    3.12176820377445   -1.77715037262761
H         3.79963758713174    3.66592952410089   -0.99490049739515
H         5.62970514134836    4.52053042336118   -3.52164199517376
H         2.36723482540548    3.84910081111439   -4.55752542650543
H         1.70975006318495    3.33947845712760   -1.69239011809780
H        -0.25631970275780    3.86858255876021   -3.94437717976987
H         0.75412154934097    5.11141020430086   -3.11761728488784
H        -1.45990363543876    4.60235949604541   -2.02613817850704
H         1.36172447442179    1.44287225123424   -4.07419945820367
H        -0.01283577720454    1.51271624696772   -2.87564155981837
H         1.56355140303318   -1.24158675967300   -1.15348539400072
H         0.45651135495281   -0.99026494150071   -2.50604489368884
H         0.24362113109667    0.42249880172142    0.07237952871141
H        -0.55395122430280   -0.97747137471168   -0.25873333316798
H         2.09013651562090    1.71085597002929   -0.43668764374325
