35
 energy: -49.717224344450 gnorm: 0.121692569459 xtb: 6.4.1 (79825abcba525fcdf90b791dcacef51065a7a4e7)
C         3.77530355626980   -1.26980391560620   -2.70126262062288
C         3.00380000316117   -0.08622688170728   -3.26642818807023
N         3.88412599575678    1.10791414220898   -3.10851880197172
C         3.56510495883924    1.73507548230445   -2.01320028348006
C         4.07055213378749    3.09102762785695   -1.63495185697927
C         3.63434953592466    3.94205610538464   -2.83361779621704
N         4.40953137949908    4.75142322771408   -3.48451163220622
N         2.40938104382452    3.62939208141197   -3.39904087386827
C         1.22434739496615    3.06914041016472   -2.72101411492169
C        -0.08950907505866    3.86676911059351   -2.92644402299407
O        -0.01962410805504    5.00254571697523   -2.06413691508403
C         1.00850216531289    1.58395327807758   -3.08693971267786
C         1.78250414316323    0.41585535144888   -2.41135118650304
C         0.89331929563871   -0.75230153007209   -1.88309332179703
N         0.17392446625689   -0.27815228590931   -0.69055168675477
N         2.55813349355563    1.06870319373146   -1.33815699811870
H         3.82491371879362   -1.34722279640664   -1.60864062387954
H         4.80030494659447   -1.11615599407505   -3.05468382903793
H         3.31938160919285   -2.17939615981523   -3.09765232251839
H         2.74560079176195   -0.13424971526372   -4.33307780013352
H         5.16317176716493    3.07205965176551   -1.61282268844090
H         3.76932862763353    3.54615215917588   -0.68938321493166
H         5.36260402902032    4.76415920512458   -3.10020981364368
H         2.25567497037823    3.96666270764898   -4.35220851867560
H         1.39490699336218    3.11359567827362   -1.63681254743652
H        -1.02922242198090    3.32227815955877   -2.78825569594087
H        -0.05697323988190    4.27455000563670   -3.94456753697190
H         0.90029991677023    5.32896661904596   -2.05662397688298
H         1.18495775156280    1.40080921120091   -4.15529915100640
H        -0.01663260661814    1.39946409458923   -2.73838939407555
H         1.52392591825372   -1.61571652072702   -1.67263381553219
H         0.29177442634141   -0.88548090917676   -2.79088610726754
H         0.40116382540265   -0.75610139069817    0.17796628290176
H        -0.84264083613377   -0.23628534618679   -0.77907981461928
H         2.00044704922762    1.46836592661100   -0.58615366361824
