35
 energy: -49.722270241030 gnorm: 0.109416983820 xtb: 6.4.1 (79825abcba525fcdf90b791dcacef51065a7a4e7)
C         3.61812626036279   -1.38224674415818   -3.11475141778482
C         3.04619464578338    0.02736649910342   -3.15175358504085
N         4.08673737242820    1.07623746793401   -2.94433489532671
C         3.70528870840025    1.70362230210675   -1.86929368871097
C         4.14417737806589    3.10543872913128   -1.58743848162444
C         3.62084437698200    3.94414607674240   -2.75962222452367
N         4.22915682512856    4.90670675235581   -3.37855494152162
N         2.39831225910682    3.58884193600550   -3.30476809000026
C         1.21175421748411    2.94059726605605   -2.71335807130861
C        -0.02873124447771    3.79316733455281   -3.08612062530229
O         0.06352670496147    5.09936253420657   -2.51709643711622
C         1.01358520671242    1.43808214505014   -3.01243811212032
C         1.85085838085403    0.40731929843878   -2.20222007583293
C         0.93184747448787   -0.72393987388532   -1.64547222280860
N        -0.12919562774237   -0.17194973000879   -0.78873633331355
N         2.61628644242355    1.17477263360609   -1.19987672768627
H         4.00050539843876   -1.83016078655388   -2.18985311137748
H         4.48216223553293   -1.26065012225125   -3.77641460841233
H         2.87669333177756   -2.11226025792637   -3.44596908714473
H         2.75879403153009    0.03149377649236   -4.21198859339462
H         5.23153110589466    3.19786207017107   -1.52590046136848
H         3.91757188589002    3.55529240613694   -0.61880253126497
H         5.09599041464856    5.18715074209153   -2.90300446049505
H         2.23673245230886    4.11256332206248   -4.16819930618151
H         1.15667016134942    3.02910754646473   -1.61988124910693
H        -0.86571987557915    3.19554127725643   -2.71072653503991
H        -0.01932096352408    3.78383857606499   -4.18327319173625
H         1.01352200037133    5.32111967890461   -2.48245587720663
H         1.24003426075420    1.24943119415098   -4.07036148053617
H        -0.06157367228489    1.27143809977649   -2.86181270006039
H         1.54461476329435   -1.51270085852583   -1.20979377326422
H         0.41609202205561   -1.13586929326146   -2.52182327913527
H         0.33835400629548    0.07984462136345    0.07866984816813
H        -0.72731277803187   -0.93442439191836   -0.46642693318181
H         2.10607099839394    1.76333266906007   -0.54449076386867
