35
 energy: -49.719055652806 gnorm: 0.118767935826 xtb: 6.4.1 (79825abcba525fcdf90b791dcacef51065a7a4e7)
C         3.39409002384363   -1.44148650094161   -2.84146941455841
C         2.81808480451665   -0.08961921804267   -3.23663679834163
N         3.89683259535384    0.94100287749386   -3.23482174484480
C         3.71206281907134    1.58608022245472   -2.11922156711884
C         4.41121754935191    2.88488195250534   -1.87132714827551
C         3.87272373769308    3.78832263024233   -2.98718624363979
N         4.47049470695396    4.86187808922471   -3.39924611275181
N         2.62008496803980    3.53221609122227   -3.51946002267581
C         1.43044697140896    3.07873864269103   -2.77311788110201
C         0.28795975666047    4.05528415274056   -3.15484246511073
O        -0.64626254315353    4.02251898943831   -2.07567561129143
C         0.96225997789299    1.62952963621369   -3.03170191166141
C         1.73920388118544    0.51959756228671   -2.26726707916463
C         0.89856379080106   -0.47614730477204   -1.40929684571489
N         0.03842908312845    0.38574075102865   -0.58357338198773
N         2.67621467689244    1.14687884217668   -1.31433166787049
H         3.91462374692735   -1.22997049272899   -1.89988388845371
H         4.29084432974911   -1.67163279166598   -3.42628261024705
H         2.71871409931858   -2.28872177913058   -2.70579554006303
H         2.50924032203075   -0.10584542958293   -4.29070804954568
H         5.48051793965867    2.80575884995822   -2.08346706293753
H         4.30482842607981    3.28676301068210   -0.86179906521172
H         5.31708754383982    5.01473823621536   -2.83700780914157
H         2.44325852707345    4.14494732337376   -4.31895888636344
H         1.55400326946750    3.31317282603771   -1.70712804610833
H        -0.15690037764236    3.67683235088435   -4.08085611991972
H         0.64467743970783    5.06954286075312   -3.37381984603137
H        -1.58061216093577    4.03387588105739   -2.35803898129600
H         1.04933497029823    1.45896601691848   -4.11308814874377
H        -0.07515342165592    1.48183132978445   -2.70248540598118
H         1.51412018147175   -1.02973408909714   -0.70072408889118
H         0.21430895119844   -1.12170799262794   -1.97385632268503
H         0.67979079249582    0.77891327548586    0.10087315633758
H        -0.56749792778790   -0.11738972492097    0.06658603383009
H         2.33267038191170    1.92681471417692   -0.75761734435491
