35
 energy: -49.719648441872 gnorm: 0.106347870322 xtb: 6.4.1 (79825abcba525fcdf90b791dcacef51065a7a4e7)
C         3.57055173391259   -1.58100837093168   -2.50454125674348
C         3.07153390488797   -0.27925926549700   -3.11438955404951
N         4.10352036217546    0.79798691778166   -3.13504468666007
C         3.79383277402852    1.57213610346506   -2.13523717300645
C         4.36350460504141    2.91535096120882   -1.80599136941468
C         3.57577688010643    3.94369392800124   -2.62655091963504
N         3.99197632137299    5.10777289133671   -3.01557921227758
N         2.33823273313680    3.62605847927663   -3.16096841560691
C         1.15514262047208    2.84101083825438   -2.75859424209611
C        -0.10151198890568    3.63138041248325   -3.20666450944204
O        -0.13460271915652    4.93027088343691   -2.61485836998598
C         1.23074898872962    1.38733486441226   -3.27568359825958
C         1.91718891746385    0.39977339022036   -2.28903558339147
C         0.89538551745119   -0.49100702617580   -1.51655602442085
N        -0.05165256358269    0.47017591974369   -0.93025557804630
N         2.73079998978627    1.18446278838139   -1.33937429990947
H         4.60208909592789   -1.78084005609483   -2.81803074058010
H         2.97204999446614   -2.39597627744826   -2.92497563543977
H         3.54658621389313   -1.44354205812507   -1.42154710127880
H         2.70852462194415   -0.55165501183694   -4.11475911377268
H         5.37146125163108    3.11470062323761   -2.17875169748981
H         4.27191650306759    3.22362993894234   -0.76265551784212
H         4.84288933151266    5.40428778735203   -2.52138943614285
H         2.11025968089728    4.13119328263982   -4.02048730619757
H         1.09185000540359    2.90571817827784   -1.66389478258159
H        -0.97165024448755    3.09558827861578   -2.81370929460734
H        -0.11198121151874    3.84261808819762   -4.28332061500299
H         0.78804306529311    5.23899436781014   -2.53560038983880
H         1.99868911412053    1.38286694630971   -4.06074298154156
H         0.37083771928944    0.85709203209940   -3.70675206546799
H         1.43586569601105   -0.89194242850974   -0.65948230673159
H         0.57674871886495   -1.29181741688361   -2.19541832779187
H        -0.59751251272607    0.14797972007585   -0.13487952520699
H        -0.63521061173082    0.87203062026313   -1.66576077391930
H         2.29512225386926    1.79821171747331   -0.65399071740137
