35
 energy: -49.722770721817 gnorm: 0.117623163617 xtb: 6.4.1 (79825abcba525fcdf90b791dcacef51065a7a4e7)
C         3.61233479785783   -1.36401436666212   -2.34094390304920
C         3.17589185587739   -0.07161341900462   -3.01525970693669
N         4.18632559434128    1.01275947265933   -2.84484522565361
C         3.77146770863340    1.70035491221797   -1.82018242868192
C         4.03803621436433    3.15312128032596   -1.58445798070598
C         3.64352919092520    3.85951670186929   -2.88702923445726
N         4.39451643323817    4.34054551677058   -3.82738779678038
N         2.32914327839428    3.66709676587008   -3.27865923566032
C         1.21286721597742    2.87931645827358   -2.72077314649595
C        -0.04851849607520    3.76196801992413   -2.90641826163451
O         0.02802706085673    5.09730711821431   -2.40696234664267
C         1.14688992423028    1.44749153700466   -3.29679043146374
C         1.88612799274889    0.49429461886444   -2.31450004474416
C         0.86763365880066   -0.59122623187954   -1.84694220124084
N        -0.20753458863376    0.13278419054857   -1.15100820203821
N         2.62516800596583    1.18692864232318   -1.24042607333053
H         4.68662428099602   -1.53950937359378   -2.47278202762042
H         3.00219427241304   -2.14961372408686   -2.79887869528743
H         3.38849935473294   -1.30352591839293   -1.27389820961313
H         3.05331752786822   -0.11176510106016   -4.10616657707958
H         5.09730475634207    3.31507408773552   -1.36907792697266
H         3.47192929766630    3.54710769408245   -0.73812964809647
H         5.37465178589867    4.31797694488887   -3.51912992635764
H         2.10625033611472    3.83206381240878   -4.26304239095781
H         1.27037245340600    2.89722693760601   -1.62399047044946
H        -0.88821930355156    3.35015223366873   -2.33726283710772
H        -0.42093290505987    3.77416558223540   -3.93844444647147
H         0.79854715671822    5.57755224504634   -2.76547407144494
H         1.64169853699822    1.51843287914749   -4.27464623165150
H         0.11983429342237    1.11227464875999   -3.49480867585697
H         1.39176268293631   -1.26417010358189   -1.16879865304922
H         0.52821904535945   -1.13797114233807   -2.73550757974337
H         0.08254374275810    0.12274135574087   -0.17625169669001
H        -1.08257733900669   -0.38484310713002   -1.24774109558268
H         2.14023426225149    1.68935842777529   -0.49971219766121
