35
 energy: -49.726629784069 gnorm: 0.107838916114 xtb: 6.4.1 (79825abcba525fcdf90b791dcacef51065a7a4e7)
C         3.29455944435823   -1.39537398614733   -2.61511460307429
C         2.81331070515366   -0.05243742796703   -3.14464788642478
N         3.86678708942627    0.99238488042082   -3.30090360370452
C         3.83732505014012    1.63636989143299   -2.16986703570733
C         4.49716296508943    2.96646427129407   -1.98926300667024
C         3.83749452107894    3.87295379786319   -3.03541619889771
N         4.39972842711344    4.86787067849764   -3.64670848916492
N         2.62751366753663    3.50107861960843   -3.59725698043647
C         1.45532524126610    3.13555994806265   -2.77855227847329
C         0.24065262460129    3.92131083721101   -3.33694087085464
O        -0.84962492499250    3.88556865866293   -2.41582018179853
C         0.99552144950840    1.66084919570014   -2.78750822686379
C         1.84591589199844    0.57191215420876   -2.07266762209791
C         1.00294152012577   -0.39763118817521   -1.18741260432319
N        -0.06743607332115    0.29388127063524   -0.45215463265066
N         2.85482727738072    1.28271899465690   -1.26247727953912
H         3.90042657656107   -1.29009440091946   -1.70730465144406
H         4.02260580758656   -1.84463368844188   -3.29867608038699
H         2.48030180219513   -2.08581621500200   -2.38572043362799
H         2.25723459942400   -0.25422514362390   -4.07026956785911
H         5.54538206813640    3.03324303048000   -2.29166085521931
H         4.38121930924064    3.37474270775900   -0.98336053049954
H         5.38457234415245    4.98086931321855   -3.37557874714706
H         2.54228845538510    4.07006062942179   -4.44277560348386
H         1.62923601967253    3.46262452189414   -1.74446151998454
H        -0.01471713943009    3.37399423594905   -4.25009935710427
H         0.43136422625898    4.98879470141316   -3.50435238617664
H        -1.25290468617346    2.99912184857988   -2.48248912992239
H         0.82489770623798    1.44623865082731   -3.85094607656091
H         0.02480893531162    1.67524141338294   -2.27376222240779
H         1.69718592317592   -1.01033606604675   -0.61290342995793
H         0.44216334600158   -1.06473645322096   -1.85388023968759
H         0.37719835081108    0.95433944874987    0.18068955071080
H        -0.66515967834255   -0.36373801507101    0.05109326717528
H         2.58385536193043    2.12794492331391   -0.76405894141897
