35
 energy: -49.727079470087 gnorm: 0.108944294177 xtb: 6.4.1 (79825abcba525fcdf90b791dcacef51065a7a4e7)
C         3.59208616373364   -1.55872261718814   -2.73484420861871
C         3.08131838735844   -0.15219390823617   -3.01102843579985
N         4.19589146730597    0.83843631644512   -2.96348243306197
C         3.84595251835138    1.63824883401285   -1.99773344858528
C         4.47778365404352    2.98968232037710   -1.89016070834942
C         3.62014212692677    3.90777797111333   -2.76929299840529
N         4.16081850888701    4.98632512323545   -3.24263211009960
N         2.31149877998299    3.70338595152165   -3.17387468842334
C         1.15821263697607    2.97874400719019   -2.60577952453703
C        -0.13847906169212    3.64973701137029   -3.12826481540500
O        -0.25186948844907    5.01998131817314   -2.74353229397194
C         1.07916931905810    1.50668965506080   -3.06738510420708
C         1.90051857669996    0.50517932796853   -2.20580853481042
C         0.95761248772039   -0.57202618333118   -1.58544333545133
N        -0.14293726794428   -0.02163203237310   -0.77899526137577
N         2.78587659602994    1.18004866878914   -1.23614389707362
H         4.49304850443017   -1.61442065573162   -3.35729282313413
H         2.82644432019127   -2.27181521997995   -3.05800607464700
H         3.92376663880031   -1.61210489491170   -1.69586102061037
H         2.66117099188662   -0.21615766194111   -4.02399400334805
H         5.47263579978867    2.94964644914818   -2.34108585309091
H         4.51786449514006    3.36717928804475   -0.86650863662642
H         5.14282426102794    5.15576397450111   -2.99133000930486
H         2.10787879181803    4.46048180037153   -3.83057125608787
H         1.20353517437707    3.14335437587193   -1.52069464728999
H        -1.05810018386702    3.20252857486916   -2.73720317865380
H        -0.08721831283224    3.58478242696206   -4.22237293376840
H         0.59893151962979    5.48499900045326   -2.85650778236381
H         1.32514092962206    1.42241551775825   -4.13437435173716
H         0.02742290535812    1.22761752007680   -2.91780865095936
H         1.54619531344260   -1.15496979122619   -0.87749533091429
H         0.53963116401819   -1.07280873906706   -2.46759364114647
H        -0.51749825214504   -0.77124175102210   -0.20263957322268
H        -0.86755657877174    0.40172802478224   -1.36096450683478
H         2.27846645644415    1.70117691970467   -0.52395446835546
