35
 energy: -49.717876364326 gnorm: 0.105224434938 xtb: 6.4.1 (79825abcba525fcdf90b791dcacef51065a7a4e7)
C         3.62891956385407   -1.37822152318844   -2.41981137894746
C         2.86798411677242   -0.22818373657874   -3.06314237132197
N         3.87373171916544    0.83157322558278   -3.36524986336599
C         3.78847756059373    1.63695720042749   -2.34597718717486
C         4.41839899058618    2.96658900448809   -2.07684304511906
C         3.69215081403181    3.88178908463914   -3.06996669897161
N         4.22672598999225    4.90180907297191   -3.66446935482582
N         2.52292530259788    3.36329714638242   -3.60108595580193
C         1.29914632549514    2.96921721586549   -2.87653575237806
C         0.15618085477721    3.91441811281600   -3.32914709383418
O        -0.67800673721464    4.19243536222434   -2.20429891434304
C         0.91535859544647    1.47630583157901   -2.97750159499271
C         1.81362454058380    0.50733774401424   -2.15642255398231
C         1.05618501862845   -0.34200614885303   -1.08909090319581
N         0.24118941385930    0.46111888136534   -0.16428048423267
N         2.83287580308940    1.27472736699314   -1.41359217215263
H         3.84529495430468   -1.26437974702116   -1.35093373596808
H         4.58980323178496   -1.34994702091883   -2.94425890970607
H         3.14047059930149   -2.34915366051429   -2.52495915804723
H         2.42924645309076   -0.58006250236022   -4.00675511301770
H         5.49625024383352    3.00327531824419   -2.25448855237443
H         4.28045446516917    3.24585159235501   -1.03044077621617
H         5.17245793364765    5.26380723249290   -3.48912404485005
H         2.28241876673079    3.67203304492614   -4.54593745056834
H         1.43973924365003    3.21399203543018   -1.81499027252848
H        -0.34061754304923    3.41058247140856   -4.16459223965003
H         0.61124111798266    4.81706901292202   -3.75583297379111
H        -1.42055888597368    4.80578316406500   -2.36332104827037
H         0.98571951791969    1.31496132165321   -4.06151612315213
H        -0.16512248388299    1.44445778642000   -2.78263960489873
H         1.78089779922068   -0.80534714061254   -0.42009922526749
H         0.53333803894455   -1.06989734117011   -1.72193065819786
H        -0.59329785825305    0.87892768675254   -0.56858646862825
H        -0.19453980070016   -0.13394857678719    0.54213996744166
H         2.52803438017384    1.74602532601595   -0.56435521168361
