35
 energy: -49.715698194239 gnorm: 0.122349857089 xtb: 6.4.1 (79825abcba525fcdf90b791dcacef51065a7a4e7)
C         3.73430309715229   -1.34278619190084   -2.62196725476536
C         2.98900740925302   -0.12649736655232   -3.15174105061992
N         3.93941764637172    1.02132698371187   -3.08031519707529
C         3.63205223693086    1.65944717963402   -1.98799768430075
C         4.07586529438993    3.04003801009859   -1.62172745329937
C         3.51537023288840    3.85879559856838   -2.79083117431275
N         4.18945705121557    4.82349573352626   -3.33360684393168
N         2.32310820535307    3.47000804689992   -3.37850910832716
C         1.12109334747229    2.87431315913792   -2.76351734717790
C        -0.01215929680715    3.88125837147238   -3.08975592309894
O         0.34577577131304    5.21272105964263   -2.71889806546443
C         0.92589943554977    1.39750593876313   -3.17243213923833
C         1.76856439032332    0.40927980317110   -2.31611644262764
C         0.88529281492247   -0.68232490905031   -1.63602304001269
N         0.25325698560624   -0.06136822288939   -0.46152506727196
N         2.55377427607607    1.13497202349245   -1.29809228905836
H         4.68192108246003   -1.60528718727016   -3.10713841957324
H         3.07775136000574   -2.20627472656478   -2.77186538394765
H         4.02352613352061   -1.10031054473194   -1.59731938178750
H         2.79750543204326   -0.21198833347616   -4.23004189229475
H         5.13749468328696    3.28680576444100   -1.53977711803592
H         3.57818770605936    3.38904077567250   -0.71481615934328
H         5.15236637297302    4.94967837800280   -2.99733144634199
H         2.42559469979621    3.87896865492906   -4.31025657333106
H         1.36926283544688    2.95688169169964   -1.69667423028840
H        -0.88261737298307    3.55807197650723   -2.50968619715173
H        -0.35956893882128    3.83651451875468   -4.12957506680612
H         1.26650543529314    5.29240112690162   -3.03318334121255
H         1.29424072302556    1.30406812931540   -4.20280308442641
H        -0.12639446492407    1.08416539187269   -3.14209878151597
H         1.54081782207178   -1.46407495081428   -1.25314290230640
H         0.10478567395556   -1.01731785909511   -2.33047896476654
H        -0.19573725572617   -0.92372104618896   -0.16294790178837
H        -0.38078330104898    0.67152721836744   -0.78378625737387
H         2.24139313801922    1.75408534044726   -0.55286064245632
