35
 energy: -49.717733398285 gnorm: 0.119238160617 xtb: 6.4.1 (79825abcba525fcdf90b791dcacef51065a7a4e7)
C         3.53442896713986   -1.30723388113529   -3.15259474360962
C         2.85045443965729    0.04229072558419   -3.31521899703869
N         3.88473852007306    1.11752845445411   -3.31673313386985
C         3.74960301446364    1.65278692998379   -2.13772286538176
C         4.45477923997336    2.87475045904393   -1.64104729784207
C         3.67161403657351    3.89024976090518   -2.48172301862059
N         4.09995079121809    5.07103169353807   -2.80098229347094
N         2.45562097345795    3.53738815353205   -3.04284637190068
C         1.15907588747587    2.97130265927687   -2.62281658817686
C        -0.02022926136825    3.77260301028985   -3.23256156622074
O         0.08991517295489    5.16719378519011   -2.94720086315353
C         0.84496442397639    1.46764173450004   -2.78594030595301
C         1.84259485077575    0.44202147595705   -2.17537636283553
C         1.06404009061565   -0.74653907886860   -1.53080451315212
N        -0.12184379570026   -0.28811001310690   -0.79051796146703
N         2.81836655417630    1.09485773882588   -1.28026108584668
H         3.72120001083449   -1.50360412953677   -2.09012921983526
H         4.50551120362277   -1.14359413522517   -3.63151374640785
H         3.02944930553450   -2.12991740843890   -3.66302106150366
H         2.47138080970686    0.15502421225155   -4.34006472970761
H         5.51110380895138    2.99997764104225   -1.89237121959515
H         4.15955312332748    3.05714295512278   -0.60589100811101
H         5.05237128142520    5.31260969181322   -2.49976335590473
H         2.48215013030610    4.29840602038054   -3.72552757317024
H         1.20881675787181    3.15923121155536   -1.54172057056023
H        -1.01809049810190    3.49354315119602   -2.87897121442050
H         0.01227917671726    3.64631131635458   -4.32201690619330
H         0.78220121336831    5.61363991807256   -3.47093089693883
H         0.78237984627854    1.27865413604671   -3.86595746835699
H        -0.11831848570210    1.32167722750813   -2.27878620343046
H         1.76810730802431   -1.31215064099018   -0.92103711570598
H         0.73981419985135   -1.44277270321661   -2.31426926973305
H         0.17222782561259   -0.04684292088893    0.15272570352735
H        -0.86504260035038   -0.98850947969291   -0.78096762240624
H         2.35225906177515    1.68013268879848   -0.59000711854089
