35
 energy: -49.713692107398 gnorm: 0.119109332505 xtb: 6.4.1 (79825abcba525fcdf90b791dcacef51065a7a4e7)
C         3.43402922756386   -1.49030592295898   -2.45431658710293
C         2.84012288511640   -0.23795417486957   -3.08230926229946
N         4.00685791621622    0.68198139168606   -3.21769731949743
C         3.93938688769944    1.56881805164460   -2.26701503896626
C         4.58193293161638    2.90923388164940   -2.10095812705994
C         3.81431944184888    3.86031425920618   -3.02699151206947
N         4.32070034803527    4.94179382703106   -3.53060360253643
N         2.53634821531834    3.60019239917961   -3.49297006690484
C         1.34194646501766    3.13082368354766   -2.76426954043037
C         0.06742941535146    3.83912340627276   -3.29204755964129
O        -1.01664758839114    3.89726574083603   -2.36477064388655
C         1.00610498122925    1.63640138748269   -2.96472916943316
C         1.90093872949965    0.63890807726300   -2.17464603600196
C         0.94148194146272   -0.23805876617662   -1.31170432405638
N        -0.12707762166911    0.49700996945048   -0.61718550914799
N         2.93360700679734    1.30332239641957   -1.35506883802703
H         3.93652328268388   -1.25622351498153   -1.50828126419634
H         4.09777712125641   -1.91174308286831   -3.21653147559225
H         2.65491482709316   -2.19606590245633   -2.15896718636129
H         2.42160595431993   -0.44021528329812   -4.07762249837166
H         5.61613355920676    2.80617527014538   -2.43929984693310
H         4.58948011445192    3.33478890247248   -1.09556270406992
H         5.32677058244813    5.02798074576082   -3.33931307622490
H         2.29975177272215    4.38776173130027   -4.10096865302375
H         1.48995465737360    3.29088100560377   -1.68768460629588
H        -0.34620159179423    3.33194927576166   -4.16972141007903
H         0.18602724762852    4.87740923800808   -3.62643717566902
H        -0.64178347173757    3.43782889039275   -1.58935982555635
H         1.16078134905351    1.65663712934803   -4.05180596292268
H        -0.03581743829766    1.46319264736852   -2.66336347817267
H         1.58718451510023   -0.67114261596339   -0.54819274403714
H         0.70714600836167   -1.07763835533964   -1.97794264108537
H         0.29155252144716    1.24877748697226   -0.07497619465006
H        -0.74250755777079   -0.11549469755839   -0.07952473303686
H         2.55661799638189    1.93839906174287   -0.65449022582074
