35
 energy: -49.710930170622 gnorm: 0.126060148563 xtb: 6.4.1 (79825abcba525fcdf90b791dcacef51065a7a4e7)
C         3.17170200024993   -1.58228308136255   -2.57512818750768
C         2.86956473431267   -0.15053058500367   -2.99259950265998
N         3.99265347761834    0.82117069147157   -3.13525400896252
C         3.86571061631124    1.67109714085660   -2.15732815370315
C         4.71094759274183    2.89893125167321   -2.28042490104601
C         3.86581331027761    3.84242280065914   -3.14465516036649
N         4.36989988459572    4.95631165784603   -3.57453090769726
N         2.55310779020763    3.60840899560170   -3.51888983646666
C         1.33364148053645    3.19621256753783   -2.79715375329110
C         0.12908908196530    3.97591235722647   -3.38516189166563
O        -1.13544181869444    3.39564482554764   -3.06469794182605
C         1.07630240332743    1.67395244223400   -2.74450205792778
C         1.97235632376183    0.65572470781621   -1.98275977040368
C         1.04083049608133   -0.27359802426113   -1.14435924107920
N         0.08193656671565    0.42849618693269   -0.27712909887982
N         2.95169467601990    1.39028194314825   -1.15760584688237
H         3.74059438521958   -1.75445387648282   -1.65371820949587
H         3.77689268842839   -1.99052148246709   -3.39135592544619
H         2.23391930467363   -2.12988994593572   -2.46094410848197
H         2.30124990268338   -0.19480332583407   -3.93162697988166
H         5.60905572100842    2.65254271796063   -2.85258015060710
H         4.82716081719085    3.41436927675596   -1.32502334201401
H         5.36102545759244    5.04389017057385   -3.31724182404701
H         2.27235951633521    4.48767540009479   -3.95931759791392
H         1.31914025505158    3.67570839466202   -1.80900733566841
H         0.19876095076251    3.89271116624946   -4.47458879856171
H         0.28554771081939    5.00141650132018   -3.02769682150279
H        -1.16980879973005    3.47324035908723   -2.09224480415927
H         0.88441271169801    1.28666175874202   -3.75408339151581
H         0.08363754129911    1.52003066974688   -2.30026177273185
H         1.70073723805480   -0.93130247872778   -0.57921208987091
H         0.36841559928414   -0.69410813827885   -1.90245565100877
H        -0.76275885419613   -0.08965136122510   -0.04819832440319
H         0.50532214146011    0.81398326754435    0.56853008082485
H         2.61369422651959    2.15817953182075   -0.58111432446477
