35
 energy: -49.723140832527 gnorm: 0.110604932679 xtb: 6.4.1 (79825abcba525fcdf90b791dcacef51065a7a4e7)
C         3.25426177683847   -1.52924199404753   -2.88284990940686
C         2.82956567777413   -0.10635389570457   -3.21527602049217
N         3.97344275131416    0.84850497821729   -3.29058714328591
C         3.89237709954377    1.58384868633509   -2.21936055375851
C         4.57477149543166    2.87788981121621   -1.90799197179268
C         3.80173021939849    3.91588927857584   -2.73035837178782
N         4.24421318722417    5.06390933552768   -3.13767102947322
N         2.60458680375232    3.61273196247393   -3.35721813062410
C         1.37183872892802    3.09703502219066   -2.73088287992350
C         0.29614659630944    3.98978103722611   -3.40209287156692
O        -0.75045898065412    3.99650031926468   -2.43100194427892
C         0.95104901368833    1.62426310599563   -2.93125862472556
C         1.83321405364125    0.57001510322453   -2.20304322561803
C         0.98662757201677   -0.43001496043055   -1.35597312925649
N         0.22684921821491    0.21481307396694   -0.27364433193067
N         2.86611099953996    1.21486615838841   -1.36826903285658
H         3.80448580752016   -1.54182027955927   -1.93449713619984
H         3.91287698365797   -1.90909168367625   -3.67093765953436
H         2.41067739288887   -2.21882677484655   -2.81083685284083
H         2.37322942321553   -0.16887182943415   -4.21255389156161
H         5.64233237882055    2.74822660625510   -2.10335918714829
H         4.49992575131442    3.05708879293388   -0.83362711623383
H         5.23096517510876    5.18322660621487   -2.87636378736131
H         2.37012879418678    4.43979534667546   -3.91120478896602
H         1.21406663133429    3.36819946870875   -1.67820168266722
H        -0.08086378280861    3.53404231829000   -4.32339249528407
H         0.66282418968874    4.97460282583779   -3.71767633499565
H        -1.34966284863925    4.73553175034742   -2.64930112221828
H         0.93324894069611    1.39228117918479   -4.00454225478031
H        -0.07985309615684    1.49407541721917   -2.57528548657346
H         1.65058436010162   -1.05038211138464   -0.75451711105350
H         0.47595596668097   -1.03645313094788   -2.11434504567880
H        -0.20925871735153   -0.47081128398686    0.33801377891025
H        -0.56134586882369    0.71030783464073   -0.69344015302959
H         2.56232042104849    1.81113341603552   -0.60117704268517
