35
 energy: -49.717074178763 gnorm: 0.116146467195 xtb: 6.4.1 (79825abcba525fcdf90b791dcacef51065a7a4e7)
C         3.73001055293642   -1.40597648051135   -2.74067559931414
C         3.06562829446073   -0.13978404020307   -3.26109600120262
N         4.06951223630904    0.94945567338297   -3.08317493722918
C         3.78141304218128    1.60008654390582   -1.99298836480076
C         4.41003927374985    2.95352833272169   -1.89209573334425
C         3.63694132965974    3.93845127185707   -2.77728980234636
N         4.19958661370574    4.99126056954687   -3.28193587673774
N         2.26417438735651    3.81400092016493   -2.91157623503498
C         1.18396471904620    2.91478433065042   -2.46161672438092
C        -0.11024623545678    3.64861474834420   -2.89881550785128
O        -0.11084474905009    5.07072107015567   -2.77209056348625
C         1.14976378287273    1.51099382758800   -3.10541333866448
C         1.94992990722105    0.43713083294890   -2.31389316613873
C         0.91562408778630   -0.57974969663128   -1.73903486528583
N        -0.12055291775556    0.15152292926321   -0.99332744945575
N         2.76522018288140    1.03914536622773   -1.24037686611061
H         4.20730823922843   -1.26662544336038   -1.76341110340241
H         4.47855910649082   -1.73919839455144   -3.46716049750237
H         3.01925947615706   -2.22666753229653   -2.62385617449909
H         2.71434102810245   -0.35450196626895   -4.27953004593006
H         5.42925261554726    2.83323848852319   -2.26812984857143
H         4.44131988840729    3.15343716869947   -0.81923415123461
H         5.19245925994616    5.12783360957597   -3.05445121209769
H         1.81169483421285    4.47437653463764   -3.54802882209858
H         1.08197611452051    2.89155571212242   -1.36817324589909
H        -0.94742756375597    3.17839423078947   -2.37284242079339
H        -0.28053372105576    3.51452525397138   -3.97442766646899
H        -0.13338011143857    5.33615253763270   -1.83299229699062
H         1.65293751335688    1.67482692207861   -4.06772573202701
H         0.14435991861077    1.24388104762093   -3.45788845760329
H         1.46435550463764   -1.33257422468844   -1.17370979505093
H         0.49411373211826   -1.26465200000795   -2.48530463565539
H        -0.24619427073665   -0.21084161080338   -0.05135997090361
H        -1.01873850830397    0.29738991348729   -1.45698740508280
H         2.21601834867325    1.60505072268923   -0.59665179439989
