35
 energy: -49.727415338599 gnorm: 0.103455506139 xtb: 6.4.1 (79825abcba525fcdf90b791dcacef51065a7a4e7)
C         3.47118438683468   -1.45699467430113   -2.73552202078144
C         2.97983572985005   -0.08780114230037   -3.18203070807644
N         4.05860811324190    0.92785756907675   -3.00718932152412
C         3.74292393533549    1.63963058503666   -1.96385281178156
C         4.25949731419894    3.00597066132727   -1.64226044349485
C         3.55895233155036    3.95648882188660   -2.62056211375664
N         4.00312226421882    5.12749532797441   -2.95388126056723
N         2.52959509356007    3.43499012608660   -3.38637714115775
C         1.25250429676115    2.93637556267702   -2.84018156551955
C         0.15405667407446    3.76736844450169   -3.55256874479483
O         0.03025018373336    5.00747399510308   -2.85596545756777
C         0.94078212806939    1.43196746031614   -3.00098293777745
C         1.81976264348833    0.39988383331333   -2.23799649882104
C         0.96107561883090   -0.69342106303243   -1.52973275914506
N         0.01264389692366    0.01652812160970   -0.65740747983301
N         2.65675616443806    1.13657753201744   -1.27038027105909
H         4.40795583043984   -1.62001634954350   -3.28156311833418
H         2.64276154027915   -2.14770296008857   -2.92467733288081
H         3.66453393241729   -1.59766037145420   -1.67007527122037
H         2.80532091872965   -0.15474488351579   -4.26451743555726
H         5.29066098667690    3.13609736531482   -1.98054385064089
H         4.10531295640224    3.31774326419668   -0.60736961779628
H         4.88860214845348    5.37126143742566   -2.49268604653464
H         2.30966007299849    4.06969031589159   -4.15753851634064
H         1.20638280132965    3.23919955734521   -1.78532123221686
H        -0.84824563426169    3.32690712928920   -3.54917658476488
H         0.35051448965295    4.06995546326983   -4.58879495147793
H         0.90177135897347    5.44467761871431   -2.90256046450402
H         0.89401506453069    1.22474246226752   -4.07845258592422
H        -0.00898335562013    1.33008453824285   -2.45877423703930
H         1.53023521749440   -1.46966055151768   -1.01889721690386
H         0.48756824050310   -1.23794389518567   -2.35615054344048
H         0.55391931912567    0.18321038830467    0.18736141117651
H        -0.79583348832327   -0.58464203349907   -0.49021344073477
H         2.09894765314868    1.66888681351037   -0.60573753571441
