35
 energy: -49.732182374476 gnorm: 0.094964545819 xtb: 6.4.1 (79825abcba525fcdf90b791dcacef51065a7a4e7)
C         3.62574352026596   -1.35872607083958   -2.60963452073192
C         3.00882467340181   -0.07326819845890   -3.14113583144723
N         3.97331168812638    1.05920665299442   -3.02647323878626
C         3.74505968064130    1.72645906886686   -1.93216814139989
C         4.23901643409135    3.12141313389249   -1.71476345397435
C         3.64722514488627    3.89582432408033   -2.89856772789616
N         4.29191518146286    4.80246105272085   -3.56342064037942
N         2.42078264307833    3.53487108642463   -3.43107253954975
C         1.23754100549172    2.96576639285133   -2.75730253027461
C        -0.05953980871398    3.78426844938607   -2.98592351824153
O         0.09229380255980    4.96763515171748   -2.20168136040710
C         1.04498007472567    1.47655845196060   -3.11986497621462
C         1.85369127868278    0.48753246018657   -2.23230345074740
C         1.01600313281086   -0.64310677547341   -1.55833754705051
N        -0.32129304002366   -0.17921777994017   -1.15715440467923
N         2.66561437478775    1.21336932061487   -1.23555941489785
H         3.79916438059838   -1.32016956863933   -1.52763808681617
H         4.53987982804337   -1.57238879286219   -3.17341207797307
H         2.99125977425325   -2.21832559357124   -2.83517100047264
H         2.65718658785266   -0.24995226185824   -4.16673215602040
H         5.31634869384095    3.30519814993975   -1.69909826547599
H         3.78214247794444    3.57730919861653   -0.83419604277905
H         5.24651868680097    5.03207043545508   -3.25976090477168
H         2.23212830312580    4.12151362335774   -4.24726226252128
H         1.32654179778019    2.94003300473399   -1.66278138678876
H        -0.93613067848576    3.31251119382417   -2.53022501527724
H        -0.21299358359832    4.04409655893517   -4.04084560778372
H         0.99037945911947    5.30943070425586   -2.37339395468910
H         1.39021444739188    1.32602566379311   -4.15147697596101
H        -0.02209024466449    1.23942155060535   -3.01238523983932
H         1.61975310359540   -1.02188424347290   -0.73404575398356
H         0.95317992733482   -1.39429059345541   -2.35549300663262
H        -0.32978339203295    0.41772446894704   -0.33375632346051
H        -1.06391459759424   -0.87776953803601   -1.09770909463775
H         2.21077599230415    1.66439167182808   -0.44438664162670
