35
 energy: -49.720487612192 gnorm: 0.117823302402 xtb: 6.4.1 (79825abcba525fcdf90b791dcacef51065a7a4e7)
C         3.63412545762310   -1.28735151669972   -2.66284417814049
C         3.05844536642133    0.06899758051130   -3.04283629426207
N         4.05800924704214    1.15207936358431   -2.81112977978417
C         3.63663137281325    1.78057882597135   -1.75176320209443
C         3.99118099680792    3.20521562377281   -1.46565218170807
C         3.64713068507902    3.81492253627291   -2.82991354181769
N         4.36972829777268    4.51588223513603   -3.64609550780501
N         2.44831400165270    3.42464452203277   -3.40309020601583
C         1.18446947170650    3.00086992575684   -2.76982954001333
C        -0.05895777741648    3.85073149226227   -3.13895797895040
O         0.23128819327344    5.21669275937282   -2.84171557138462
C         0.99979193953284    1.49892514383436   -3.08019645040117
C         1.80517946200251    0.50332754131189   -2.19697052836757
C         1.00584949774045   -0.74684754441574   -1.71486015434441
N         0.00265781959871   -0.33308050870993   -0.72142909451096
N         2.57285561314555    1.16081246353642   -1.12089254020079
H         4.62603460941199   -1.36425886043623   -3.12379881628231
H         2.95721266653578   -2.01238467797627   -3.12680330582478
H         3.78047711313110   -1.52821708453749   -1.60789743305282
H         2.81870799984100    0.15591476971690   -4.11133328708326
H         5.00563110776063    3.32836459991934   -1.07784754399653
H         3.37881976433739    3.50303123170215   -0.61225099518253
H         5.31666998946213    4.76502100748534   -3.33395953188136
H         2.54703559143811    3.59791563122230   -4.40615389595032
H         1.34180306556853    3.28189115431416   -1.71967093219824
H        -0.82128280781494    3.58665115315390   -2.39885682752670
H        -0.50771295139181    3.73152915986687   -4.13310530898342
H         1.02836726047156    5.41925795708978   -3.36754782827494
H         1.14998667183072    1.40148616344840   -4.16371728102604
H        -0.06123986611379    1.30885914214941   -2.86921944735632
H         1.59646670189192   -1.54660183109506   -1.26875730665156
H         0.48793879381279   -1.22408961975788   -2.55610281071544
H        -0.04549877054999   -1.05851586529038   -0.01021813778634
H        -0.90704399071468   -0.20032754002982   -1.16619234694013
H         2.03116823483908    1.74799034880425   -0.48998018362023
