35
 energy: -49.715532808353 gnorm: 0.123405826664 xtb: 6.4.1 (79825abcba525fcdf90b791dcacef51065a7a4e7)
C         3.53248048869198   -1.60421257927224   -2.41105730061245
C         3.07893708612318   -0.33402870419268   -3.11562510183130
N         4.12545484626753    0.72745184773632   -3.17840764817523
C         3.86600521733298    1.46403463964276   -2.13679345678782
C         4.53820984855737    2.79713427657952   -2.04656459728995
C         3.58187419315486    3.87233606530253   -2.57636211708362
N         3.91038923105919    5.10111069992325   -2.82502974650717
N         2.25354567265840    3.72597376399887   -2.93986075694189
C         1.10666499687765    2.81441211348301   -2.76202076100982
C        -0.04964400813623    3.64500378309005   -3.37659282296846
O        -0.34756752098967    4.84551413191013   -2.66352729678921
C         1.39143656627519    1.42895312764698   -3.38305227211084
C         1.94987427159480    0.42937978667231   -2.32998426341027
C         0.85452510075043   -0.32187085589991   -1.51137001470068
N        -0.11621181710937    0.65282606146306   -0.98970177616644
N         2.79337804999266    1.11940484344477   -1.33403055139527
H         4.34349915490257   -2.21423294823831   -2.82626996831988
H         2.63165372267609   -2.20680272755625   -2.25441011423027
H         3.81078837852185   -1.26562250723265   -1.41093272951066
H         2.82648474103919   -0.55849603837318   -4.16089859284922
H         5.39115188186952    2.78979324194580   -2.73001404346131
H         4.80304785004692    3.13217618416872   -1.04178513966043
H         4.84500608884476    5.35223043565090   -2.47915726205258
H         1.97686294347939    4.51394348599352   -3.53016236797538
H         0.88425840105444    2.71966903794883   -1.69051763132217
H        -0.92012295841378    2.98804699485293   -3.28014708829305
H         0.10968377037318    3.77133643213546   -4.45482009705941
H         0.40842300513264    5.28742903208241   -2.23218427162595
H         2.15272185618653    1.54234688282732   -4.16641476470391
H         0.38558632292317    1.17081370695168   -3.74089891971359
H         1.39824608919098   -0.93434715297517   -0.79256291360470
H         0.42929076025041   -1.09186103787726   -2.16709221161167
H         0.14000445303590    0.91090699609540   -0.03988916493780
H        -1.01083798951532    0.16614796921962   -0.91365221631949
H         2.28938142385123    1.87854432376673   -0.88021544003875
