35
 energy: -49.719978186155 gnorm: 0.120557641205 xtb: 6.4.1 (79825abcba525fcdf90b791dcacef51065a7a4e7)
C         3.61831376877821   -1.31485694083113   -2.93071119368524
C         3.00024320718824    0.03696694187552   -3.25635736209089
N         4.03087451594364    1.08708171011584   -3.00949688069134
C         3.73359907504776    1.68275144934809   -1.89073268747112
C         4.34428596943740    3.00246923619639   -1.54064489839543
C         3.69311466210809    3.74907228828835   -2.71106448738187
N         4.43607083367997    4.44521396400557   -3.51296704463621
N         2.36255525530889    3.67275910349555   -3.08762496902834
C         1.14498322578945    3.04404267368344   -2.53977374270797
C        -0.05161935366447    3.72258559446660   -3.25556254648863
O        -0.40725340271502    4.95507668174903   -2.62871639217749
C         0.99061874265844    1.55457478224686   -2.91915290253832
C         1.89643571075045    0.49266986869781   -2.23227206766671
C         0.95776422261689   -0.63587624175798   -1.70352251104428
N        -0.02102253446700    0.09603945272631   -0.88451220080213
N         2.70893517377960    1.10517930701467   -1.16258343697250
H         3.93957775406360   -1.35277243776142   -1.88303302286232
H         4.47258754585177   -1.47556398695581   -3.59669290725117
H         2.86188243076116   -2.09341609310129   -3.04905369315487
H         2.75896863543802    0.16987699296585   -4.31976505454184
H         5.43598040428263    3.03681910041649   -1.58176050065448
H         3.86992504419420    3.40772320583242   -0.64469571050675
H         5.38784474904064    4.49315442814340   -3.12822596778719
H         2.24905500443930    4.23780210235179   -3.93246205211075
H         1.13483190272136    3.19595481476334   -1.45194125174430
H        -0.88487218221948    3.02129384886590   -3.14372690732949
H         0.19673231619025    3.74530744452006   -4.32407763550693
H         0.25984989806989    5.65013341505885   -2.47143771688327
H         1.36408280317807    1.49952367212168   -3.95044539206984
H        -0.05162064134922    1.20793101236056   -2.91897232173285
H         1.54622161240789   -1.40661511223676   -1.20640797895690
H         0.42358158763579   -1.13798402699751   -2.51974392441733
H         0.43039202523506    0.51903393480442   -0.07723461318388
H        -0.76208277544041   -0.54948322311956   -0.60679781175079
H         2.24263310882569    1.74705270037949   -0.52476337960536
