35
 energy: -49.721584417518 gnorm: 0.102701963919 xtb: 6.4.1 (79825abcba525fcdf90b791dcacef51065a7a4e7)
C         3.64647894161073   -1.31787583703627   -2.35865809767449
C         2.93251205949192   -0.16455947039407   -3.04829358663522
N         3.94998547185712    0.91472258722889   -3.20885545430572
C         3.72815964951813    1.71373859048827   -2.20526431903958
C         4.36388033498182    3.05218163274988   -2.00134179714363
C         3.85368756564602    3.80096055892924   -3.23841724538429
N         4.55640062247724    4.37907267080991   -4.16125285254660
N         2.50776872629186    3.61647588995722   -3.50763413525027
C         1.36091788483963    3.08036629762737   -2.74919716862522
C         0.07507659716908    3.87795696686289   -3.08845097334317
O        -0.94823767564782    3.64781227786403   -2.11978834882151
C         1.08577850549807    1.59565996975136   -3.07510666162202
C         1.83036491655186    0.55686939226265   -2.18828259172556
C         0.79974201299254   -0.28150451916047   -1.37021035088675
N         0.10097718240099    0.64698043650269   -0.46791029925340
N         2.73586117706300    1.33427529958513   -1.31921783732026
H         3.82114963577162   -1.11622561820287   -1.29512388488019
H         4.63119606944998   -1.29849275169028   -2.83730051166810
H         3.11446617689134   -2.27078556048783   -2.32297694959454
H         2.59824301247528   -0.51138802461920   -4.03555676438233
H         5.45464106620639    3.07494338685144   -1.93508418549631
H         4.07422585860603    3.52424027110911   -1.06047255478200
H         5.46305827766451    4.73201610202197   -3.83019334992913
H         2.18737821553585    4.08899444014434   -4.35615151156140
H         1.43470888014312    3.30052937893640   -1.67558504495900
H        -0.40054062026076    3.54158130597301   -4.01541767753081
H         0.38097803577764    4.92902474679991   -3.16328521833861
H        -0.49430259876605    3.82299258191101   -1.27354838950840
H         1.45705985597623    1.39653998255326   -4.08929185669513
H         0.01764243460283    1.34274808666331   -3.03579009571862
H         1.34342634752694   -0.95022802587648   -0.70338235071295
H         0.17919762601111   -0.94060957726978   -1.99003765962355
H         0.01587137165319    0.06803004961467    0.36393703822876
H        -0.79319476592339    0.94337096355285   -0.86237736903324
H         2.33862012169471    2.02841641750656   -0.68943918930839
