35
 energy: -49.727681013540 gnorm: 0.109028570024 xtb: 6.4.1 (79825abcba525fcdf90b791dcacef51065a7a4e7)
C         3.48591894763827   -1.44168512999288   -2.72720731854447
C         2.95555960267505   -0.06180530192090   -3.08794969078549
N         4.09430199049578    0.89146783856784   -2.94505779028941
C         3.78534629393549    1.69511618404394   -1.96857218708778
C         4.29774294634138    3.08708709980174   -1.77616227474263
C         3.84131483956500    3.82808940636602   -3.03866421784537
N         4.51422842297547    4.56591309921874   -3.86476851926057
N         2.59248903689976    3.48927342927023   -3.53227105832029
C         1.40326673040147    3.09590522400193   -2.75193859758809
C         0.20610014079447    4.03304271825979   -3.05722095870279
O        -0.45884620884664    4.17402030314444   -1.80166624447776
C         0.90993193593662    1.64744453019138   -2.96372610682493
C         1.82402019401411    0.62125344588914   -2.23480484718937
C         0.88381769244793   -0.49656675966100   -1.68635812445564
N        -0.20823622626590    0.00858955552790   -0.83975473081843
N         2.68569597750230    1.28475206755492   -1.23638541519545
H         3.80249373500350   -1.42287527338922   -1.67758630457561
H         4.34248702195186   -1.63316526891745   -3.38201154174343
H         2.73150876368966   -2.21356200053948   -2.89279426032493
H         2.70033883588031   -0.08952505728579   -4.15603601271940
H         5.38355512831517    3.12327063903510   -1.65628821495360
H         3.86858470092656    3.51965724213865   -0.87024822180510
H         5.44982090333060    4.88268629499976   -3.58100979471621
H         2.49849017333147    4.02741345688035   -4.39683749716929
H         1.63857424719280    3.37977602752096   -1.71723688629798
H        -0.39763186305830    3.63174083593177   -3.87764283993981
H         0.58838190408068    4.98576906858094   -3.44463867599841
H        -1.16801628533750    4.84436190467074   -1.82589848096175
H         0.91934748669103    1.38443050697816   -4.02993677039097
H        -0.09776248689266    1.68555353660910   -2.52838195928659
H         1.53360521706189   -1.17318415391396   -1.13191386566444
H         0.57201462492499   -1.08266677413336   -2.55982611486483
H         0.07822495756006    0.55924472189982   -0.03407773991378
H        -0.82929232022126   -0.75066302372561   -0.55546626404048
H         2.10665697820199    1.94161558681075   -0.71725378969854
