35
 energy: -49.730891609400 gnorm: 0.121722070574 xtb: 6.4.1 (79825abcba525fcdf90b791dcacef51065a7a4e7)
C         3.66215017178345   -1.28178196628335   -2.86880644739057
C         3.03343420699801    0.07777075549241   -3.13679344985204
N         4.03435546832490    1.15185808607788   -2.87151055532382
C         3.59110436346452    1.73637527535080   -1.79601229186232
C         4.02943732414460    3.13580850307941   -1.50172371593631
C         3.63834279957399    3.91216041436152   -2.76491212229543
N         4.46490018302187    4.50078143682386   -3.57112113965060
N         2.44418852343574    3.55965716685388   -3.37133347439613
C         1.27760476324030    3.04933557078252   -2.62530322428114
C         0.00522415275775    3.77726153164731   -3.13107312973379
O         0.09376107477512    5.19393985435169   -2.97735359656713
C         0.93943228184705    1.55867448665816   -2.84855282763715
C         1.82657454726128    0.45671838422613   -2.20154203411804
C         0.98303935812092   -0.76429760250026   -1.72001857016242
N        -0.12312788296918   -0.27678470864249   -0.88143216142727
N         2.56752318536673    1.11226448054100   -1.10572666066973
H         4.64596032925427   -1.40117002801877   -3.33799908809725
H         3.07832854609187   -2.10542198759603   -3.29296619786432
H         3.79975323249832   -1.61685934580823   -1.83869179557347
H         2.72400925110893    0.25208046227354   -4.17630618108477
H         5.09054572878011    3.25987458250380   -1.27080450220661
H         3.50756456055195    3.49821664592151   -0.61387060841944
H         5.43700577263582    4.52660982152929   -3.23864380362401
H         2.45569816923284    3.83579033010264   -4.35597735807701
H         1.37185646335992    3.35964699589787   -1.57583512155361
H        -0.78434390113970    3.42127716234258   -2.46138289570080
H        -0.24868872213568    3.53992542333106   -4.17180323276849
H         0.92735888443173    5.49648715009364   -3.38533286672554
H         0.72606377858132    1.27875224558861   -3.88883528678648
H        -0.01207635932726    1.37495042448191   -2.33154060680052
H         1.62632419557929   -1.46445753122595   -1.18766151445748
H         0.56224759843966   -1.22278736157235   -2.62356831108127
H         0.20870849826521   -0.00774404938989    0.04155119378777
H        -0.85420001298413   -0.96976200874113   -0.71317319177071
H         1.98694532121147    1.57698512483379   -0.41058816058238
