35
 energy: -49.723186686034 gnorm: 0.110498809833 xtb: 6.4.1 (79825abcba525fcdf90b791dcacef51065a7a4e7)
C         3.64670119852071   -1.24680567340732   -2.86779920819900
C         2.87676786472026    0.03986485665198   -3.12696336014147
N         3.88990599877632    1.12819742087709   -3.00463039462460
C         3.60058140127693    1.78920476523503   -1.92103038033500
C         4.07161477064914    3.20639064265728   -1.83816484556838
C         3.64423958704467    3.77550786864456   -3.19639098216205
N         4.34364588495771    4.48241633337048   -4.02750833570946
N         2.33669007015717    3.41830397657417   -3.48052034002577
C         1.28747253563554    2.94589478036567   -2.55646455424824
C         0.03961377854059    3.81013143346337   -2.87360075283030
O         0.31009536953325    5.20436382669947   -3.01989395387262
C         0.86247848289728    1.46422983901430   -2.65805487860234
C         1.82566076266771    0.42212292147306   -2.02068154790002
C         1.05378647155369   -0.76516097245381   -1.36580478305986
N        -0.05422519253998   -0.20286785857284   -0.57799860341423
N         2.65593075291790    1.21298836740275   -1.09076728967129
H         4.14965738986158   -1.33772176884402   -1.89772343141443
H         4.45753355469626   -1.04930960915826   -3.57680434525738
H         3.06935540492070   -2.13643002339542   -3.12777616177775
H         2.48394750541899   -0.04318151653739   -4.14946513518495
H         5.15753363035523    3.25354999342452   -1.72317195113105
H         3.66410929811383    3.67833044335655   -0.94195833398647
H         5.28202866133744    4.69687092332085   -3.66744645505667
H         2.09636763885359    3.68014362216387   -4.43947326980073
H         1.59432012036669    3.28993745213135   -1.55944946672160
H        -0.63618736524058    3.88164543026455   -2.01522661573437
H        -0.44135993238798    3.48948603650162   -3.80621543613596
H         1.15178268284344    5.37770520089394   -3.48290852646906
H         0.71181058357022    1.29817649295894   -3.73313426244578
H        -0.10803685333433    1.43303781779803   -2.14468180154154
H         1.76044937936234   -1.39007332487331   -0.82031835909179
H         0.56081368769654   -1.37218417789627   -2.13533799647440
H        -0.87610620365089   -0.78498818864951   -0.43642155900549
H         0.10850164391437    0.21256016586565    0.34066053585457
H         2.28706225526306    1.70581472342666   -0.28001967991590
