35
 energy: -49.727308618518 gnorm: 0.114785243762 xtb: 6.4.1 (79825abcba525fcdf90b791dcacef51065a7a4e7)
C         3.61558850321353   -1.54450289093191   -2.88703355254729
C         3.10335877870849   -0.13699180910894   -3.15539469672245
N         4.12206628476498    0.91275049498250   -2.86186766735920
C         3.70700340285421    1.68469673516631   -1.89924093545366
C         4.24543833504250    3.06013342075561   -1.66383347588326
C         3.60033785682944    3.91423986643490   -2.76186340318838
N         4.27513128820954    4.84789671541779   -3.35565083165534
N         2.30292827827353    3.73367101104181   -3.21145553595498
C         1.19550677073221    2.92329227476291   -2.66849066610941
C        -0.10543570429985    3.66085845130712   -3.07858410490002
O        -0.10733690546774    5.06286568347647   -2.80873589854898
C         1.01603857263804    1.44168272377695   -3.06710804540988
C         1.92565618460613    0.44661479192929   -2.29097190843360
C         0.93677347406305   -0.58426569246399   -1.66352231594136
N         0.24653837647594    0.08162250700203   -0.54787434206168
N         2.65233023746099    1.12575233736310   -1.19997513131271
H         4.46149910461529   -1.85448979147074   -3.51203039679190
H         2.74659954818994   -2.17651516651996   -3.09812775669301
H         3.92458998891846   -1.68745990434412   -1.84952257024148
H         2.88625759683518    0.04465805890408   -4.21680169782376
H         5.32219663873225    3.18494408497320   -1.80412241796893
H         3.95240338179145    3.44917160155724   -0.68671843268589
H         5.25561215104063    4.96394543453340   -3.07036582886978
H         2.17149205698365    4.11343173629412   -4.15188729770566
H         1.40598372413029    2.97775121146835   -1.59178570726339
H        -0.93655340336336    3.27278750128876   -2.48086184693914
H        -0.35394277025473    3.50964694287490   -4.13655321739861
H         0.70539511450569    5.44341433502434   -3.19281485749441
H         1.16015638301527    1.24103661492984   -4.13717411740104
H        -0.03793721990329    1.16605745827139   -2.92714157451261
H         1.46342928884342   -1.38557950271110   -1.14586104116361
H         0.24274043703535   -1.04458102173003   -2.37774122486442
H        -0.50534743375765   -0.47464080403456   -0.14833035609448
H        -0.29756644401507    0.86459441867273   -0.91379785498039
H         1.98457074620418    1.63762295221852   -0.62696621072468
