35
 energy: -49.717179903758 gnorm: 0.122293861338 xtb: 6.4.1 (79825abcba525fcdf90b791dcacef51065a7a4e7)
C         3.50575500207953   -1.70272503135979   -2.32773834794341
C         2.99235263862962   -0.41692785116117   -2.95910835865671
N         4.13365783581980    0.53760693457684   -3.06941615887852
C         3.95663795837789    1.51465977661397   -2.22747784369479
C         4.57572796857601    2.87355618399845   -2.14213708857615
C         3.59771628638283    3.95579065981092   -2.61498364548601
N         4.06086100233299    5.16124258844585   -2.72465334597604
N         2.25883118393924    3.86267294866794   -2.95663494257043
C         1.15317415484815    2.90824649471205   -2.74568551168803
C        -0.05904025389980    3.61757051330008   -3.40297352230448
O        -0.44816651792642    4.79341240705993   -2.69274640411223
C         1.33390174368270    1.48953238266455   -3.32951715534480
C         1.92340487314415    0.51138938240603   -2.27326241197514
C         0.86651123896311   -0.38184783993647   -1.55256849786830
N        -0.24158372842496    0.42953060641592   -1.02503409112455
N         2.83719804775263    1.31686841173109   -1.43915058271424
H         4.22603833596313   -2.18734866946101   -2.99752154791437
H         2.65493158693094   -2.39210268004665   -2.32798614124546
H         3.82262216776879   -1.53409214612817   -1.29647416251819
H         2.66661223617196   -0.54690248511147   -4.00012431595440
H         5.44910074241989    2.99491169771967   -2.78801631770012
H         4.71191828356549    3.10371126800921   -1.08362169215912
H         5.08016721371862    5.18338011603870   -2.59533842935864
H         1.96086437339945    4.74245218787436   -3.38454833302528
H         0.94346023828162    2.89298161887268   -1.66756355334640
H        -0.88191833961155    2.89543617675383   -3.40758441071070
H         0.10102217830430    3.78924547814914   -4.47480702635773
H         0.36352611262899    5.23488133681948   -2.37790117254012
H         2.01754931183444    1.61147615938350   -4.18029676700541
H         0.28367828253386    1.33200734575440   -3.60994796296352
H         1.42838639369245   -1.06435307390817   -0.91544504936617
H         0.50273074911925   -1.02565907070683   -2.36303230272927
H         0.09686115782194    0.85860727344746   -0.16727840620556
H        -0.90652342226239   -0.23924125922513   -0.63312276914177
H         2.50059374320024    2.04223473260828   -0.80923413333144
