35
 energy: -49.728883175353 gnorm: 0.104665270501 xtb: 6.4.1 (79825abcba525fcdf90b791dcacef51065a7a4e7)
C         3.47724714622207   -1.38815381817928   -2.90725563812007
C         2.90848460631530   -0.00987223104600   -3.21111987077425
N         3.91775124032371    1.08609138332362   -3.13284714399085
C         3.73162749743273    1.65277769743064   -1.97567256571443
C         4.37795825825305    2.97966148785145   -1.73320421253184
C         3.91258918002585    3.76875722430836   -2.96287153682600
N         4.70763485544706    4.35303587073961   -3.80320815888913
N         2.56958971431153    3.77698730595151   -3.30094628319732
C         1.40895968488519    3.22015895702923   -2.57929049262464
C         0.17200980206615    4.04024326140557   -3.02878860075455
O        -0.99457401026008    3.76131306604137   -2.25436874725812
C         1.07979449227893    1.74210825494111   -2.88472117435540
C         1.85518294768612    0.57912379502175   -2.20193896560232
C         0.86698847914276   -0.45920732198305   -1.58579229172068
N        -0.04164362410837    0.28433933566671   -0.69921006680268
N         2.76855363317836    1.08729554892719   -1.15931132713171
H         4.06904758271918   -1.31903253243304   -1.98678175458185
H         4.21086429012555   -1.57716293206442   -3.69796640875833
H         2.69892646831596   -2.15200083585786   -2.96295410709613
H         2.58153194504666    0.00239140157489   -4.25976946503244
H         5.46236613421614    3.11245485539264   -1.70014945237043
H         3.91280307493045    3.40918653237786   -0.84375893849740
H         5.71265003811410    4.33036032339444   -3.58960136463134
H         2.40319510531455    3.72937531984511   -4.30889049125611
H         1.56152636548974    3.36153973873438   -1.50072906582883
H         0.02490025339582    3.84675660716012   -4.09628534009606
H         0.45342321750776    5.09627962119232   -2.93125386442591
H        -1.63905617313529    4.49399818421171   -2.28049380933600
H         1.20250022486035    1.61027702332793   -3.96806508557097
H        -0.00071842438428    1.66196891141223   -2.70445918123366
H         1.52901529593626   -1.15195428591774   -1.06688430747619
H         0.32989651943302   -0.95507642653174   -2.40391621965661
H         0.43741242487107    0.63361857081746    0.12717111336157
H        -0.91146920068312   -0.15731941159162   -0.39699143884454
H         2.37906776011631    1.70380168240589   -0.44904769526661
