35
 energy: -49.722790128166 gnorm: 0.129113697741 xtb: 6.4.1 (79825abcba525fcdf90b791dcacef51065a7a4e7)
C         3.56901128284758   -1.39985415322010   -2.81121802779974
C         2.97449777984142   -0.02481426769193   -3.07824507203854
N         4.01768578381298    1.03137223688802   -2.92954785104428
C         3.65680894177039    1.67168438087320   -1.85502623635431
C         4.17775392422269    3.03407182978579   -1.52385901576444
C         3.70240404983491    3.89732863795672   -2.69865788862906
N         4.47929523788591    4.64572918210084   -3.41697642592557
N         2.51431278304633    3.46653547903811   -3.26510844837796
C         1.19202420526753    3.03950832597592   -2.76800919318247
C         0.07934183060810    3.92140103521694   -3.39157553043728
O         0.01919062521608    5.28246951042373   -2.96458562553572
C         0.85271524379092    1.53375220236078   -2.82997221545128
C         1.80083578618932    0.49329053249432   -2.16781014853790
C         1.06051810359170   -0.75070079095223   -1.58582056361124
N        -0.19518376421153   -0.27028036523331   -0.98840026287194
N         2.60272365400381    1.15761802991807   -1.12129126729444
H         4.50100354984830   -1.47745235379956   -3.38362226744821
H         2.87196658212103   -2.21402560195568   -3.03570770292126
H         3.90432845504300   -1.61545370627783   -1.79464196633500
H         2.70547964766101   -0.00124713474683   -4.14304000854247
H         5.25904799133188    3.09457650005811   -1.37617872721450
H         3.70728395145073    3.40188423404181   -0.60988634037124
H         5.37529488082067    4.76070373490800   -2.92691207954601
H         2.26811885950754    3.95891289612648   -4.12700092246995
H         1.21272723304147    3.33459046942901   -1.71015391134796
H        -0.91953532050424    3.55259867361180   -3.13690546893987
H         0.14695186796428    3.82678172015629   -4.48262795276279
H         0.81756280941210    5.64436937415978   -3.39411746963147
H         0.57092367525865    1.29212749574567   -3.86354911256922
H        -0.05276519130442    1.44209995778490   -2.21504951886208
H         1.68632924134239   -1.14877602045133   -0.78748485947240
H         0.86017958883495   -1.54553033624474   -2.31506070023224
H        -0.03322091596031    0.06155522055191   -0.04074541050653
H        -0.78788327971164   -1.10172720866414   -0.96843731279171
H         2.10609161909196    1.79885883318446   -0.50613246965050
