35
 energy: -49.724248413322 gnorm: 0.109894739502 xtb: 6.4.1 (79825abcba525fcdf90b791dcacef51065a7a4e7)
C         3.46492285486235   -1.34582816052255   -3.28137926365504
C         3.07259275472258    0.12140050736569   -3.18756265411431
N         4.14547228560930    1.07444009185662   -2.77948539180270
C         3.67890849577162    1.74329965160007   -1.76470781104081
C         4.13080541743116    3.13624092330683   -1.46030885503764
C         3.50130253906676    3.90826950175106   -2.62607908204083
N         4.10237844997300    4.86438233550322   -3.26184698801712
N         2.38840238527882    3.39514969351781   -3.27119239633257
C         1.13679241725040    2.92691728126890   -2.64498324709520
C         0.03089026070322    3.89507798299178   -3.13922722970262
O         0.37249294552690    5.26850227796434   -2.95092090856403
C         0.82258772069986    1.43036063194653   -2.86376429248470
C         1.86591032333294    0.46139805646978   -2.23723324814986
C         1.12127552785547   -0.81148482150446   -1.72773864557650
N         0.06653158539617   -0.38107281214995   -0.79673773473880
N         2.56051029452590    1.19632421628300   -1.16160721833486
H         3.85895069370092   -1.87777239895276   -2.40727683249093
H         4.29901571395610   -1.39125408822642   -3.98945247150095
H         2.63956076957425   -1.85415795798483   -3.78409778411184
H         2.85530827606067    0.42660618467614   -4.22020555883265
H         5.22235642238210    3.17268181566864   -1.41723211443539
H         3.80359048793804    3.60774427674533   -0.53155216945730
H         5.03961165583308    5.09826134748793   -2.91100215837264
H         2.23830787850471    3.85412441867032   -4.17270193565674
H         1.14719541168995    3.13992232785270   -1.56744878248209
H        -0.88679153787153    3.63264763133949   -2.60292692004607
H        -0.08155622634570    3.73375441836917   -4.21869461117238
H         1.20067058296570    5.28484040025189   -2.43446943205301
H         0.69558368933985    1.22599788839748   -3.93529406261529
H        -0.23365668946824    1.33053780471098   -2.57949678144889
H         1.81173107012543   -1.53921698546418   -1.30215622739789
H         0.48694889157620   -1.27686483588824   -2.49241626748509
H         0.58234585622545   -0.02256139996272    0.00313834710664
H        -0.47197154583943   -1.14566655994033   -0.38636489991683
H         1.94593958094373    1.76848957219060   -0.58612209475596
