35
 energy: -49.719745782559 gnorm: 0.113311982543 xtb: 6.4.1 (79825abcba525fcdf90b791dcacef51065a7a4e7)
C         3.45158711155693   -1.37412865937803   -2.66403622945326
C         2.91015306122784    0.00421886554100   -3.01402437529679
N         4.01653446420575    1.00181356806508   -2.93274093778774
C         3.76304248037438    1.78933709657864   -1.92756586785613
C         4.18113632940773    3.22516673973142   -1.95487333510941
C         3.80826544970054    3.69504834637990   -3.36607876278138
N         4.46408613078526    4.53995325115856   -4.09798020871687
N         2.51548608208916    3.36573816176546   -3.73794721778319
C         1.36860237737003    3.06779308193696   -2.85829190042025
C         0.13475802958471    3.87194833770384   -3.34367245905929
O        -0.72385014689104    3.97711178917929   -2.20781216306872
C         1.01522399807927    1.56582346766438   -2.93233604496448
C         1.84237057441879    0.60717271341960   -2.02858334319879
C         0.96167366982975   -0.44463175575111   -1.28536275118313
N         0.47487674764618    0.09489021756222   -0.00612596234683
N         2.71573874760584    1.37886192153706   -1.12233794560349
H         3.73676600276030   -1.36959256795792   -1.60529636334228
H         4.32987577361251   -1.63743526003892   -3.26271872996619
H         2.67407969301456   -2.12186402825391   -2.83351099367216
H         2.54995138280776    0.06651361803223   -4.04992424024095
H         5.25001296869663    3.31721898840497   -1.74583686277971
H         3.73116192754553    3.76156732615263   -1.11715534307610
H         5.45320745240765    4.65961306670856   -3.84595223722015
H         2.24776718227736    3.69397356771816   -4.66880365277206
H         1.59677610029051    3.44593654597722   -1.85255627095571
H        -0.43966651515143    3.36608518226159   -4.12646649521587
H         0.44767308089906    4.89163318894687   -3.60105603435122
H        -1.29066841757048    4.73121324104697   -2.45864141016063
H         1.17540703620075    1.21694464070146   -3.96126518127250
H        -0.01852253815958    1.43758919341755   -2.58398429608446
H         1.60327777898864   -1.28511306669038   -1.02196441027597
H         0.12815222548964   -0.85737203692616   -1.86722884698772
H         0.10090376520057    1.02475086084415   -0.17904192281413
H        -0.15922490370973   -0.60969741444380    0.37396146108783
H         2.35376392244346    2.16126721237309   -0.58097885306342
