35
 energy: -49.723736928787 gnorm: 0.103310846882 xtb: 6.4.1 (79825abcba525fcdf90b791dcacef51065a7a4e7)
C         3.38777502527692   -1.46927604081012   -2.42383931030461
C         2.80714626068035   -0.20898393890644   -3.04835393688041
N         3.90039912415425    0.78350292054530   -3.26201261093548
C         3.85295324370933    1.59104209992485   -2.24198428023088
C         4.59292942532632    2.89062986428833   -2.21625805265458
C         3.85435926105889    3.88987748629668   -3.11477932893096
N         4.49841264539180    4.85397283998267   -3.69388224519066
N         2.50238917170061    3.78670626158929   -3.39681193163369
C         1.31708506847872    3.18653711463150   -2.75434940003808
C         0.08135323837789    3.90095525446564   -3.36032413396124
O        -1.22721164407593    3.65190622593386   -2.84643847283769
C         1.08690354267437    1.66416718548479   -2.87956024580575
C         1.87456806915544    0.59507001530731   -2.06927171632482
C         1.05296488406509   -0.35239883825951   -1.14106508878222
N         0.22215281809899    0.47820357740923   -0.25542807496696
N         2.91214049909991    1.28299686406142   -1.27569937461295
H         3.97582778994438   -1.29341861165161   -1.51524380297427
H         3.99201859986693   -1.93180349838019   -3.21130368435826
H         2.55712878390956   -2.11306791413171   -2.12734897696397
H         2.35413834392810   -0.41343879797260   -4.02799492425448
H         5.55543497376119    2.87448783983705   -2.73393522573967
H         4.55807726014533    3.31068614486259   -1.20912744687079
H         5.46276319387577    5.00079139732603   -3.37035497675918
H         2.34711957860321    4.49204726266605   -4.12089135867055
H         1.36732796993167    3.51535504877185   -1.70749014877988
H         0.01295924508598    3.62523251029945   -4.41764472080334
H         0.24390199119362    4.98317385632233   -3.28095080130473
H        -1.22630027536656    3.74033355340755   -1.87430317555848
H         1.08671433469900    1.47182327325792   -3.96079749355679
H         0.02199277090526    1.63527687541753   -2.61206206925772
H         1.71600775568089   -0.89291290376625   -0.46603763843105
H         0.46268713753549   -1.04122586469132   -1.75813090344729
H         0.26790370038102   -0.02540026823180    0.62700411246261
H        -0.77766202032458    0.36006450662484   -0.42691724428753
H         2.62063544694535    2.04145877279219   -0.66249970931546
