35
 energy: -49.720770904511 gnorm: 0.111093590183 xtb: 6.4.1 (79825abcba525fcdf90b791dcacef51065a7a4e7)
C         3.61847778745753   -1.40691791256369   -2.95007238370403
C         3.09628768349056    0.00340475112663   -3.18200317352854
N         4.12541864995786    1.02542623414664   -2.83236975418198
C         3.67461572212398    1.70454146614840   -1.81727978692075
C         4.10995076288441    3.04738821763942   -1.32291053345928
C         3.65756512292667    3.75760472496053   -2.60441821315356
N         4.48527540555220    4.44666611108956   -3.32534462914186
N         2.35521394863322    3.66165473599820   -3.06559586628382
C         1.08327394714669    2.99107148055381   -2.73334045060566
C        -0.03501217227469    3.78669309910572   -3.45518130439790
O        -0.11086729725759    5.05842256518298   -2.81066898799654
C         0.98619920871113    1.51428059452053   -3.17598779782306
C         1.82265700441045    0.46855443991169   -2.38431437189815
C         0.92853573704266   -0.58630987221656   -1.66174606636880
N         0.11695663250575    0.03751331404504   -0.60501244349179
N         2.48755226713808    1.21783687087715   -1.29985734048548
H         4.35163062304403   -1.69150762411281   -3.71412296392048
H         2.80949124744300   -2.13850008836537   -2.85275655566425
H         4.06951546170945   -1.39052459154199   -1.95576662671232
H         2.95792882964250    0.19708211200234   -4.25441182326490
H         5.18436264900245    3.08632122751277   -1.12595761718143
H         3.53170827021480    3.41556435892307   -0.47317177985408
H         5.46050747925180    4.30623826135986   -3.03311186821416
H         2.44215938541434    3.84419893316146   -4.06810457036853
H         0.95050563084477    3.14062799959340   -1.65326392976159
H        -1.01149125566272    3.32791352447589   -3.26906979469881
H         0.18382918049978    3.93295854622599   -4.52037340274219
H         0.63262936237256    5.63916002911417   -3.06131610175432
H         1.29893440819508    1.47182114367631   -4.22787376489553
H        -0.05004870003769    1.16042033284202   -3.08997589512744
H         1.56128435033554   -1.40425927443187   -1.31818920411105
H         0.16317973356334   -0.96619326416296   -2.34993171965149
H         0.70351313345874   -0.14066017743288    0.20653066531349
H        -0.80600896596067   -0.39275645208003   -0.52756882260505
H         2.12608363541675    1.71550012033258   -0.48873146241814
