35
 energy: -49.706950234294 gnorm: 0.106869993623 xtb: 6.4.1 (79825abcba525fcdf90b791dcacef51065a7a4e7)
C         3.46017223399782   -1.49642790785380   -2.60064873602675
C         3.16124988661905   -0.07280057771817   -3.04720793085716
N         4.26325670275962    0.91880019332130   -2.87930647460997
C         3.88891756132663    1.72575091404713   -1.92876496023684
C         4.30018308437627    3.13859599514742   -1.66065229959198
C         3.76229095611540    3.82673933762859   -2.92099075118754
N         4.50899684312613    4.38045806926456   -3.82402491586693
N         2.39199666950586    3.84077980485351   -3.12125628389875
C         1.26605490294318    3.04365066842253   -2.59709289775508
C        -0.12213544189703    3.65974044963119   -2.91013086073774
O        -0.62705492318135    4.82019889899570   -2.24919330905480
C         1.31754968950194    1.65957502737991   -3.28116487974594
C         1.93691716375200    0.60069090974049   -2.32455624568026
C         0.96023319068637   -0.46992366945358   -1.74648236080961
N        -0.29558044509803    0.15798695337446   -1.30697998138641
N         2.75328370266421    1.26337593253728   -1.28824008084299
H         3.94941800733059   -2.12094901584779   -3.35754347193943
H         2.50366641177622   -1.99004410512848   -2.39919961640085
H         4.04892101522380   -1.60745859944734   -1.68774418123568
H         3.00179159170918   -0.14490720407281   -4.13168389691829
H         5.36024522014263    3.31010902374345   -1.45689095296694
H         3.74352448822836    3.65143208874753   -0.87382044711338
H         5.44734317187130    4.22879206814092   -3.43325494860864
H         2.18674668644412    4.46221208034563   -3.90713157401621
H         1.33204376345308    2.91955461553880   -1.50768685454225
H        -0.86071713295373    2.86446229794137   -2.76640424917873
H        -0.24135265030833    4.07597987784196   -3.91832296560867
H        -0.81689051072388    4.68466176012230   -1.30132233132123
H         1.95162988964449    1.74517638629899   -4.17373696512136
H         0.34499540721088    1.33241604464092   -3.67299398086993
H         1.42284046403884   -0.99123446063324   -0.90882316216830
H         0.82644750477973   -1.24637357416196   -2.50996624943759
H        -0.10103970958702    0.78490776242309   -0.53011400766837
H        -0.92264265743406   -0.61439065091516   -1.07628341638203
H         2.39900536547420    1.72338134797586   -0.45209693438023
