35
 energy: -49.726432064933 gnorm: 0.110357007018 xtb: 6.4.1 (79825abcba525fcdf90b791dcacef51065a7a4e7)
C         3.46184567039426   -1.41972227694720   -3.03726751345896
C         3.07970618665784    0.04122039061741   -3.22461847344544
N         4.05465271465051    1.12516967424816   -2.90773487330967
C         3.73622645331960    1.71906474221613   -1.79385795690052
C         4.16361815806486    3.13474169862295   -1.56946986749901
C         3.66737220967075    3.91172320336644   -2.79477059645132
N         4.39106136644731    4.75456058908274   -3.46226138072195
N         2.35579081633513    3.78936465774064   -3.22231294329646
C         1.26532994348285    2.98830667608527   -2.63315410013732
C        -0.03193680046018    3.70145579698738   -3.09483489974848
O        -0.03780042079705    5.11537701082004   -2.89674811343142
C         1.05125764912145    1.48964038888222   -2.94047139545248
C         1.92200397467042    0.41568545550596   -2.22746837046924
C         1.03248107921410   -0.73395901037832   -1.66057934223712
N        -0.02137378515059   -0.15894352722520   -0.81013881291239
N         2.68981606920131    1.07850686159053   -1.15476649686494
H         3.55891917174043   -1.62956371435279   -1.96543684229209
H         4.43407872276382   -1.61898519753893   -3.50008417443578
H         2.77467518303936   -2.09870405827061   -3.54631380644176
H         2.76640632193182    0.20658171784199   -4.26443251822656
H         5.24441848977371    3.29764589900105   -1.56948596369535
H         3.72855920119655    3.57862709278999   -0.67188229129116
H         5.37886924598141    4.85984763760022   -3.19892169612720
H         2.18245773150661    4.33017068414915   -4.07283634866371
H         1.38440114269660    3.15528562216654   -1.55403410526277
H        -0.90093145032320    3.17766945690231   -2.68358830591505
H        -0.03266483438317    3.69527000250291   -4.19204980093696
H        -0.04086241629890    5.23821534579464   -1.92836356764217
H         1.00695858302300    1.41084189175535   -4.03495693161384
H         0.04006820757415    1.31722412802760   -2.54779668570766
H         1.68191919208530   -1.49591844168752   -1.23035693530068
H         0.52680941413992   -1.25718238938226   -2.48168479764844
H         0.43466441169867   -0.15863286323156    0.09894072560421
H        -0.86203572073529   -0.73867320597008   -0.82414219028901
H         2.19676442175495    1.62518179658205   -0.45170172701769
