35
 energy: -49.717951558226 gnorm: 0.118595793789 xtb: 6.4.1 (79825abcba525fcdf90b791dcacef51065a7a4e7)
C         3.30860309321465   -1.38861689392669   -3.06178026394858
C         2.86004891567933    0.05391614414906   -3.24448773262729
N         3.96543154992724    1.04567721608509   -3.10158493086491
C         3.84078310980491    1.73465363465667   -2.00404099039515
C         4.29034581848512    3.11882375333819   -1.65890125037622
C         3.89788749628929    3.65280984489240   -3.04170910171225
N         4.73823526474599    4.28442050587673   -3.79968563705368
N         2.58239972328524    3.52316794575189   -3.45486133072037
C         1.38596894220497    3.20420376889503   -2.65191536420173
C         0.19553383834916    4.06002146408340   -3.15696206812953
O        -0.94997992910106    3.92868568409936   -2.31494361254826
C         1.01124572611219    1.71005526096708   -2.76756260270728
C         1.89268878077182    0.59823339494093   -2.12970528240440
C         1.00673328564104   -0.42574404788330   -1.35456038476815
N        -0.03021684999408    0.28655037608086   -0.59175435146706
N         2.83224216027356    1.24590733844490   -1.19305440791714
H         3.86026527087495   -1.54277226943227   -2.12680291704773
H         4.01645595220849   -1.68067708563426   -3.84458755319643
H         2.46750033942620   -2.05308331944253   -3.27005458343169
H         2.46198451451282    0.18963330242144   -4.25929806075670
H         5.35478578138692    3.19643594996048   -1.42308127388030
H         3.66368984152194    3.58939319283620   -0.89874290724139
H         5.69722936773495    4.41309031721776   -3.45331595630648
H         2.39036432884607    4.01890674193178   -4.32851518200595
H         1.49911085815985    3.53011498410416   -1.60906318611774
H         0.09620236956650    3.77214033457619   -4.20857288477377
H         0.42065945028223    5.12917764297689   -3.05625031770226
H        -1.12301276256491    2.97129618048751   -2.23536825194477
H         0.87239369204294    1.49051945046878   -3.83461196854878
H         0.00336401991990    1.66926415892899   -2.33289557254725
H         1.66959956328059   -1.10746950122917   -0.82229911579527
H         0.46680570238735   -0.97388024648342   -2.13667650446242
H         0.34667238028756    0.97235433811024    0.05787936908650
H        -0.65280339948462   -0.43419349389410   -0.22309550058283
H         2.44952666417666    1.98838145902821   -0.61123439643749
