35
 energy: -49.721810997550 gnorm: 0.119989569547 xtb: 6.4.1 (79825abcba525fcdf90b791dcacef51065a7a4e7)
C         3.66939553825990   -1.41955490302625   -2.60801002569177
C         3.10878038494912   -0.09816641109022   -3.11311156512296
N         4.20933390466981    0.89508727707176   -2.94544797239856
C         3.83236694162091    1.62539896997773   -1.93580983470820
C         4.22369385094516    3.05260398163641   -1.71877515817726
C         3.62744754199633    3.84809806405620   -2.88625179207800
N         4.23591171034619    4.67992240127047   -3.67205357427537
N         2.27310103297012    3.79927976545181   -3.17150986018973
C         1.19437670211399    2.99157751737970   -2.56994698507857
C        -0.21240267123253    3.57355300944822   -2.86474891619622
O        -0.09588436354989    4.94439071785766   -2.48307702622904
C         1.16749972124316    1.57680994515844   -3.18960973053364
C         1.87375460842462    0.48662185430190   -2.33366248393747
C         0.93353677560337   -0.58013550686868   -1.69154431042304
N        -0.10859626000252    0.17228570390015   -0.97577685741585
N         2.69599971151723    1.15269382808351   -1.30418781952875
H         4.33230615164842   -1.86189350291187   -3.36111278579944
H         2.87342586077425   -2.13272538063269   -2.36934241878436
H         4.20660506320406   -1.21860976018313   -1.67883046983875
H         2.85444262720311   -0.04165465594421   -4.18027282654048
H         5.31519699907919    3.10003371449458   -1.75100003400908
H         3.94475938971514    3.31569082307141   -0.69654481428796
H         5.24505311708186    4.77593798479189   -3.50290218097610
H         2.03866303434400    4.40626720206671   -3.96050331911809
H         1.22610993338136    3.08613452057106   -1.47604942507694
H        -1.03459690948224    3.09737153251677   -2.32080458708980
H        -0.41844170002402    3.57547026911786   -3.94246111321221
H         0.83479722159952    5.22919591670598   -2.55781020612475
H         1.59199471416657    1.49229487337200   -4.19893199045686
H         0.12639904624940    1.22988149654197   -3.23624580678309
H         1.52561242102643   -1.16954220575410   -0.99190901860165
H         0.47877974317177   -1.20007174977253   -2.47420375871628
H        -0.43766550953336   -0.32628487940764   -0.15265029178014
H        -0.94062536555036    0.21701472009091   -1.56630371577994
H         2.23477338923546    1.57999713798517   -0.50360325438104
