35
 energy: -49.719920191477 gnorm: 0.122604135119 xtb: 6.4.1 (79825abcba525fcdf90b791dcacef51065a7a4e7)
C         3.63702385277835   -1.39424807281594   -2.70579959192895
C         3.00034920153175   -0.07376835161545   -3.11379854335980
N         4.07627148096338    0.93541826270279   -2.89060436390226
C         3.70101291195099    1.70262345232996   -1.90805378661781
C         4.25739077907646    3.07264129916731   -1.68299884225365
C         3.70449011919363    3.81555708903866   -2.90516871401697
N         4.49892807827340    4.60678080552895   -3.55515193107167
N         2.39109479073461    3.72151086769185   -3.33430490118863
C         1.24172721938766    3.06125993981382   -2.68551380964884
C        -0.02373236696941    3.78531812104819   -3.21370281158406
O        -0.37586209776066    5.04584836868376   -2.64316438169954
C         1.07038148699091    1.56661608543234   -3.03615884017340
C         1.85647173104452    0.51154974580961   -2.20618965661013
C         0.93470110844340   -0.61325430790036   -1.64098940165316
N         0.05891255261811   -0.16242532944802   -0.54817212031824
N         2.66174900410427    1.17587106437548   -1.16227268127160
H         4.60730367465247   -1.44265266232877   -3.21422042935947
H         2.94617692463989   -2.18722139396676   -3.01086666262902
H         3.80889248270749   -1.65860085255523   -1.66036836788957
H         2.77448151666006   -0.12562709467922   -4.18758105399154
H         5.34950543128141    3.03019329735677   -1.67071489543711
H         3.80278883290923    3.43124694525374   -0.75741088341109
H         5.48158596054401    4.54212423938009   -3.26121217024118
H         2.24804993158492    4.06824402017285   -4.28573534067377
H         1.36235174134802    3.18829024829978   -1.60113707077488
H        -0.93798291860456    3.21842496140008   -3.01021898416958
H        -0.06779975450885    3.73355303614352   -4.30882735663127
H         0.35475665061163    5.68146604947281   -2.76585777003726
H         1.23247997153603    1.46299577717281   -4.11738829012224
H         0.00608790454597    1.38307919263028   -2.83611318716992
H         1.56976087876361   -1.44121230871988   -1.32693845070333
H         0.32491154738855   -0.81845363561833   -2.52965730691533
H        -0.27819718743439   -0.86008322573787    0.11063514873799
H        -0.79329849914958    0.28544796604819   -0.88896666050611
H         2.10674801398449    1.60210332567524   -0.42298015135382
