35
 energy: -49.724574498585 gnorm: 0.117262635945 xtb: 6.4.1 (79825abcba525fcdf90b791dcacef51065a7a4e7)
C         3.61782860788101   -1.38619564346317   -2.96686420481350
C         3.00897258357363    0.00067498820643   -3.11304437117047
N         4.10902429896588    0.99299265925597   -2.93676654525939
C         3.71678872169855    1.68075907278664   -1.90334647803323
C         4.20368413829947    3.07008917846357   -1.63905562746104
C         3.63504458166988    3.82895993789862   -2.84408111170545
N         4.23790211986781    4.76333448265848   -3.50977759309267
N         2.32478235256730    3.55616686628957   -3.20018035766693
C         1.14748183039417    2.91476895196512   -2.58335041581771
C        -0.01865308349653    3.76644668572641   -3.14851079602253
O         0.14189230139353    5.13748413664147   -2.78391862183377
C         0.97048112475562    1.43051304039313   -2.97312817033073
C         1.85240725258254    0.45127156361360   -2.14654233007430
C         0.98829224834237   -0.69345336755227   -1.53237080947216
N        -0.25401978801377   -0.14037349146942   -0.97088578446541
N         2.66496582225085    1.18344596817790   -1.15496472003791
H         4.48470007430374   -1.42005135838487   -3.63743510808810
H         2.93965579915734   -2.15644092862905   -3.34889290046902
H         3.91624115897766   -1.43960189684824   -1.91784304653119
H         2.70819838850616    0.07711256120496   -4.16680269471000
H         5.29667978193149    3.06483315794885   -1.63924341249093
H         3.87353040923088    3.45190067683329   -0.67096860064011
H         5.21463749138811    4.89236015904992   -3.21730887051751
H         2.13936966489379    4.05716710977066   -4.07226205755113
H         1.18985688810982    3.00758022465939   -1.48966384747475
H        -0.97019859130537    3.43830041113903   -2.71780350658819
H        -0.10667716192038    3.68591734242005   -4.23923813145483
H         1.04249531760068    5.33103831096520   -3.10690198306533
H         1.36817443205717    1.34013819113968   -3.99280588610373
H        -0.08064577507436    1.19588511569571   -2.75747368152919
H         1.54419018431147   -1.03634491702854   -0.66010580558976
H         0.73055184795266   -1.50750404228439   -2.22126273729907
H        -0.18419719076341    0.76668426243185   -0.51616875885940
H        -0.55705134334352   -0.75358846317669   -0.21250965002304
H         2.16737290478103    1.56920936284075   -0.35506387063430
