35
 energy: -49.717793232073 gnorm: 0.117587424809 xtb: 6.4.1 (79825abcba525fcdf90b791dcacef51065a7a4e7)
C         3.44121950526624   -1.35830917292357   -2.78874197431473
C         2.58206845078858   -0.12206337290621   -3.01019219854453
N         3.63135865468498    0.90487682419158   -3.27526934342810
C         3.71951455579014    1.70367614640681   -2.25107375987385
C         4.49360065480446    2.98195075555604   -2.31399969875632
C         3.53406959872076    3.83999751782958   -3.14729324722809
N         3.85232883287915    5.02982202127263   -3.55062133683257
N         2.31590876791062    3.29813124759607   -3.52209323224254
C         1.27244301185931    3.05141054189285   -2.50808380067693
C         0.06950948081343    3.91382614257207   -2.97049282914463
O         0.42436444653164    5.27287851884258   -2.71456205797164
C         0.82874174270382    1.57311270540963   -2.44455238547111
C         1.85058240682354    0.58605710762474   -1.81090060522475
C         1.16717940437963   -0.28444318453767   -0.71113421999867
N         0.06799463123257   -0.94836752738788   -1.42911700081314
N         2.92898694745538    1.36291147255553   -1.16817371076971
H         4.05761666773218   -1.14749926710496   -1.90676045565542
H         4.05426188211925   -1.60597821881920   -3.66165729575448
H         2.87007598959266   -2.22020083217611   -2.43762161191917
H         1.87983107839421   -0.18989808932059   -3.85219904235987
H         5.35417269673598    2.77386288254546   -2.95492274443204
H         4.74774638629480    3.43788980369508   -1.35509223172931
H         4.83515373230674    5.21409178300670   -3.31335050949841
H         2.02775857626872    3.93613277324743   -4.26763272834665
H         1.41440894443395    3.37347624374803   -1.46756505914618
H        -0.86659265052001    3.68153148328629   -2.45243917502685
H        -0.19697265701147    3.86916087020078   -4.03393611201155
H         1.29521183601928    5.40641474602955   -3.13487166108090
H         0.57133126075710    1.27359913580756   -3.46929707240542
H        -0.12813882837525    1.40932567817687   -1.93076424817962
H         0.86183816824236    0.47985817009409    0.00304609963525
H         1.84434562603037   -0.95829376520379   -0.17164187226039
H         0.47175389215267   -1.73475518716685   -1.93207768143557
H        -0.68516597028588   -1.31821281901096   -0.84691544536732
H         2.77213996253433    1.96760136575930   -0.36443082870822
