35
 energy: -49.723460686220 gnorm: 0.111099274358 xtb: 6.4.1 (79825abcba525fcdf90b791dcacef51065a7a4e7)
C         3.61068799742913   -1.38350997042037   -2.84737369797688
C         3.12892284677925    0.04214518487023   -3.07297092500428
N         4.17696244270778    1.05066749345195   -2.74073950490566
C         3.63230041028394    1.80552240935411   -1.83059352218400
C         4.00534280856508    3.24260967724688   -1.64955638854564
C         3.51028719946912    3.84599287688241   -2.96946957842560
N         4.22992488034999    4.61700237883820   -3.72266991538170
N         2.37000366730551    3.28260855637877   -3.51752194786176
C         1.15769276938832    2.89804392209747   -2.76897717438221
C        -0.00950893216335    3.80169071660261   -3.24405027142095
O         0.13892375933059    5.07521315869865   -2.61591471606019
C         0.87589950240519    1.38776815279375   -2.93000865713794
C         1.89242298589477    0.46576636106146   -2.19751680421625
C         1.07125842128460   -0.71441799736889   -1.59158766256583
N         0.07690732809160   -0.11000323558638   -0.69133733173910
N         2.58323211837899    1.22764079480976   -1.13832514310417
H         4.62804779351378   -1.25724510828992   -3.23636458677546
H         3.06556332534050   -2.18106373088566   -3.36301810386336
H         3.70215471861157   -1.57024685615358   -1.77540782688585
H         2.86866219337392    0.23857536478822   -4.12196757141546
H         5.07794981365750    3.26615989762304   -1.44068629585855
H         3.53666397168538    3.78415211729661   -0.82551396722073
H         5.13271910190374    4.74992540068239   -3.24992090034985
H         2.22772385879512    3.65296157823503   -4.46012508957155
H         1.31916932281525    3.26109572938680   -1.74492709333964
H        -0.96978904758780    3.43272664017499   -2.86941018624497
H        -0.13420891301240    4.03332512724694   -4.30928016282612
H         1.00860586163125    5.45577780445800   -2.84327093667057
H         0.88877354278444    1.03270254330511   -3.96915872043133
H        -0.06521276764404    1.25011811832444   -2.38065902071932
H         1.70162877773965   -1.44880744332400   -1.09083953565562
H         0.42914140997558   -1.20409035035016   -2.33427697975186
H         0.43687968083877    0.16147603557364    0.22031800029665
H        -0.72964846889312   -0.67917819104260   -0.42960713647852
H         2.10475424908973    1.85835351509135   -0.49839245069030
