35
 energy: -49.725287935927 gnorm: 0.113623077107 xtb: 6.4.1 (79825abcba525fcdf90b791dcacef51065a7a4e7)
C         3.86954610742888   -1.32347546699915   -2.68254637343816
C         3.01053757832943   -0.11632867830719   -3.02951240699703
N         3.98282370398544    1.01442902989128   -3.07342956255169
C         3.68826909463890    1.64605725750915   -1.97383336225097
C         4.17439262978702    3.04948228507965   -1.79709326940255
C         3.60100237871841    3.90396961022433   -2.93392977344856
N         4.19067282516875    4.93872845351919   -3.44501461319955
N         2.39241892784035    3.44942301988819   -3.43465254098398
C         1.21603479914453    2.92481760349565   -2.71436335163985
C        -0.02966457093104    3.74437984999693   -3.14001888770721
O         0.12580893878362    5.15505120851172   -2.98419764146752
C         0.91990935253233    1.41422448377626   -2.84355189567495
C         1.88237767541480    0.45101551041349   -2.09133191446337
C         0.92646211101511   -0.63067446194207   -1.49932785020261
N        -0.24571135325140   -0.04850022646526   -0.82732747145265
N         2.74572643289919    1.12826077786253   -1.10364536828147
H         4.67381795327017   -1.28828636914851   -3.42698321526461
H         3.24675065471905   -2.21831960503006   -2.78512257190782
H         4.28093009002203   -1.07402794086056   -1.70229802598245
H         2.61407909098328   -0.27514309622529   -4.04159593940060
H         5.26376927648052    2.96276547545830   -1.77694731991422
H         3.83675269823624    3.47881098756954   -0.85176255868412
H         5.08952260589100    4.99275624611890   -2.94968881908603
H         2.07524105413479    3.96952385876673   -4.25611399114330
H         1.37999859514809    3.20911439993932   -1.66610236542253
H        -0.89506210020481    3.44023704317068   -2.54234685072312
H        -0.24479916404731    3.56891719480747   -4.20155046656799
H         0.91168725923674    5.53152523130749   -3.42411790089756
H         0.91097297398634    1.10123810081822   -3.89618187482509
H        -0.09170942810789    1.19524705651793   -2.47599073957043
H         1.49860383882149   -1.26145202950614   -0.81946251908534
H         0.56656037621858   -1.23441542829107   -2.34173410563185
H        -0.12860224676077    0.00875193569135    0.18133708430303
H        -0.96656236819890   -0.77108381572160   -0.86256748662162
H         2.40784322794152    1.71534714477558   -0.34376510046374
