35
 energy: -49.725518019877 gnorm: 0.112901970569 xtb: 6.4.1 (79825abcba525fcdf90b791dcacef51065a7a4e7)
C         3.58443093555579   -1.37863070792860   -2.71064132789262
C         3.03147866792673   -0.03651072639077   -3.16719603991420
N         4.05064443975932    1.04888515697692   -3.07180778499261
C         3.71560493560165    1.66538129833995   -1.97521785833627
C         4.27380329249420    3.01755601370347   -1.66345980756998
C         3.61019299743925    3.86532941318360   -2.75534983400786
N         4.17699444420959    4.86272569151634   -3.35832710987745
N         2.34505344064659    3.59367652583897   -3.24894526674292
C         1.17223052235205    2.93009119466484   -2.64724111694353
C        -0.02065082688304    3.83341346652387   -3.05427280070104
O         0.15720733231693    5.12874239679096   -2.48074390127958
C         0.96754161800271    1.45306910991266   -3.05070085893573
C         1.85609179623985    0.46058925203359   -2.24732422286031
C         1.05338734197277   -0.71926995147270   -1.61653551237240
N        -0.26989303901736   -0.22338667597837   -1.20723025146288
N         2.67764224596526    1.14045238387886   -1.22634531178702
H         3.92189454095172   -1.19423509709228   -1.68380430989526
H         4.50257974791258   -1.62770465249678   -3.25295766737435
H         2.83215527559138   -2.16728198152048   -2.64387181288433
H         2.68268579180582   -0.12085957303154   -4.20543648915539
H         5.35844686198121    3.06975100562606   -1.78792325833764
H         4.13735752857568    3.58622886680723   -0.74152285783210
H         5.13760709008714    5.15292329807749   -3.13650228369850
H         2.20306874158991    3.95945427240441   -4.19337767711584
H         1.26977729705016    3.02829277886338   -1.55756182178014
H        -1.01723765485833    3.62913829484043   -2.64965701011572
H        -0.19476496252726    3.89345238119684   -4.13593768531230
H         1.09113367109144    5.40503956945920   -2.54638479485922
H         1.28673903117398    1.49185636239365   -4.10078599015219
H        -0.09867133452732    1.25138522087570   -2.88058788772199
H         1.52978496957171   -1.17149427557343   -0.74706336057905
H         0.83629242801963   -1.43165333973023   -2.42217837412447
H        -0.18737075020532    0.36998694279402   -0.38534561197558
H        -0.75902338917046   -1.06273077019398   -0.89219361744127
H         2.21676653218552    1.83407720981870   -0.64091242347922
