35
 energy: -49.723065949880 gnorm: 0.120345785418 xtb: 6.4.1 (79825abcba525fcdf90b791dcacef51065a7a4e7)
C         3.63294572284403   -1.46124706839985   -2.74529129417754
C         3.05578770754495   -0.09224355114439   -3.07423267832698
N         4.09018018773258    0.97202741999917   -2.92178105135007
C         3.70173626386066    1.60987590066675   -1.85543727716172
C         4.11114709613978    3.03124772299466   -1.63353679518235
C         3.61738347251258    3.92736948039886   -2.77567752719532
N         4.08706535974076    5.00350996927303   -3.32428064090241
N         2.46534134452162    3.48796810653798   -3.40634005722395
C         1.24987762156664    2.96863552540785   -2.74994946647651
C         0.02064040527758    3.79508188300630   -3.20885482282445
O         0.06804637817582    5.20319892174427   -2.97775952624888
C         1.03253371697621    1.47620530143673   -3.08414283774538
C         1.83437046317724    0.44414421347485   -2.24042520838912
C         0.94187191424454   -0.62249462276453   -1.53330111079714
N        -0.09940858927211   -0.01326647967319   -0.69123344486305
N         2.62005652128854    1.08783725900999   -1.16901789495079
H         4.39277757830049   -1.69081199534498   -3.50175225071559
H         2.91854393412012   -2.26126200742230   -2.96608137615696
H         3.96555141633598   -1.54302802853775   -1.70845331693301
H         2.94539882226397   -0.11502278790384   -4.16694024170691
H         5.18945627472015    3.16664281546341   -1.51698375749185
H         3.79595889471531    3.44041712750935   -0.67165801364397
H         5.06673322524766    5.17809034395883   -3.06743412958303
H         2.19054567433392    3.95678842231593   -4.27271206326041
H         1.27013552739295    3.05670669941405   -1.65523809886544
H        -0.87831868600655    3.45247785942232   -2.68624346450429
H         0.03178447427685    3.62635469552272   -4.29297948426683
H         0.97816391273058    5.51525569291741   -3.14260462156737
H         1.30931385142077    1.19638552356370   -4.10940566535916
H        -0.04209833196213    1.25615436518033   -3.02785412463220
H         1.57033601597258   -1.22886997046869   -0.88154565623995
H         0.51204142634379   -1.35329353667157   -2.22961957423714
H         0.23008005489933   -0.21227535587051    0.25016404852100
H        -1.03269918759987   -0.41004098519016   -0.81178938340478
H         2.08828398240920    1.59373159571200   -0.46365106503762
