35
 energy: -49.723282271462 gnorm: 0.120428735037 xtb: 6.4.1 (79825abcba525fcdf90b791dcacef51065a7a4e7)
C         3.68508746737482   -1.47422168491997   -2.51351298764364
C         3.07517367920025   -0.21587558396975   -3.11355858613057
N         4.11379971979273    0.85490557483032   -3.08977466362230
C         3.79460911095866    1.64470009799510   -2.10531013951488
C         4.37805508049341    2.98968027850136   -1.80904323629650
C         3.60623776371137    3.82981567275121   -2.83363718156471
N         4.09604148555450    4.81841279768893   -3.51364663973636
N         2.26208274861014    3.67403522575599   -3.12857717872206
C         1.15209583084685    2.92382880292121   -2.50968594551333
C        -0.15212207909248    3.69742585559857   -2.83402386135081
O         0.05041807451312    5.07359979195747   -2.51220287531453
C         1.13614504031552    1.49247139311488   -3.09040369293817
C         1.94001749381885    0.45487042112913   -2.25546355691648
C         0.92469809878305   -0.56203958785951   -1.64774886250965
N        -0.34415075759087    0.07943063073720   -1.26954188191891
N         2.77521974526599    1.19227826288133   -1.28684400173576
H         4.41168627113387   -1.94093621543062   -3.18916778736220
H         2.89607232209906   -2.21570663527125   -2.34981432131669
H         4.14839463470999   -1.25548633792936   -1.54922621179436
H         2.71024639893658   -0.31884035127480   -4.14454877248776
H         5.44609961399484    3.06189252050296   -2.02979968518414
H         4.04190042873184    3.25156535346036   -0.80386152791133
H         5.09950324212231    4.98084461230125   -3.36239196597978
H         1.98102470972395    4.13869042689406   -3.99518408055981
H         1.34044911817204    2.98104174727660   -1.42903354553326
H        -0.94341818059039    3.42409486311810   -2.12849693404159
H        -0.49257289426506    3.68767279756754   -3.87705667267193
H         0.68239300405497    5.57770592811169   -3.05933352882467
H         1.53317111592813    1.39623523441723   -4.10980504625356
H         0.11962194018500    1.10055978576768   -3.23008532662353
H         1.53758000032610   -0.91189474142443   -0.81743535580485
H         0.76724780049729   -1.26270457426523   -2.47718162156273
H        -0.15368149653902    0.79442681987981   -0.57176079160811
H        -1.04680381358517   -0.56987365265646   -0.91222169554195
H         2.37884150930666    1.82845425465606   -0.59806399914648
