35
 energy: -49.726125190427 gnorm: 0.102476714578 xtb: 6.4.1 (79825abcba525fcdf90b791dcacef51065a7a4e7)
C         3.53394122276106   -1.28353710510432   -2.54067179543336
C         2.90920152257537   -0.00813342591706   -3.08705098445695
N         3.98705663890113    1.02342055250362   -3.08445176336256
C         3.82596926125653    1.75400874426449   -2.01903156659284
C         4.33250917415071    3.15995420334226   -1.95666447272456
C         3.80904995351056    3.65113446711394   -3.31167539587684
N         4.65921986395515    4.03820313494340   -4.21002598860695
N         2.46058126902633    3.63442493788975   -3.62689412678613
C         1.35099092317066    3.19845389645496   -2.75704040662285
C         0.09565856296920    4.03495552215067   -3.11625834410664
O        -1.03854840811975    3.59928592603203   -2.36645003077909
C         0.98629477928902    1.70423875482771   -2.90053037978339
C         1.86198191545131    0.67383475861070   -2.13151065703815
C         1.02747775282058   -0.32185807043818   -1.26751114531272
N         0.08834602697641    0.23522466081219   -0.28151297232495
N         2.82267819557749    1.28360144020442   -1.19087033520316
H         4.06282789086164   -1.09123017124813   -1.59962205245298
H         4.30582521795423   -1.59190763058151   -3.25358469434921
H         2.83595860101118   -2.10654446039740   -2.37385806455172
H         2.67195334820785   -0.08068238660353   -4.15717451494950
H         5.41959509181444    3.14178464701891   -1.84449844155522
H         3.99813420935048    3.71993735386200   -1.08111535436983
H         5.64691928333113    4.09954152556114   -3.93274450259690
H         2.30847233583837    4.04789586331600   -4.54982980047998
H         1.62599152409709    3.43943771034332   -1.72125019770243
H        -0.15094938989451    3.77103620569509   -4.14977598259448
H         0.24055528598919    5.12023644349646   -3.04491701132729
H        -1.05111355928090    3.99639359023726   -1.47481396159332
H         0.99364982176471    1.39465104374559   -3.95417717302539
H        -0.05194133006936    1.63129617863618   -2.54957448706980
H         1.79146823046820   -0.81847734062944   -0.66990657957046
H         0.45576815494308   -0.96321829161380   -1.94977642509768
H        -0.44601189339989    1.02257297795761   -0.64059621515026
H        -0.63311493426857   -0.40295053807426    0.05793006962982
H         2.40709470302690    1.98992302791465   -0.58700472565117
