35
 energy: -49.725419336936 gnorm: 0.111262135523 xtb: 6.4.1 (79825abcba525fcdf90b791dcacef51065a7a4e7)
C         3.44442202862197   -1.48656536424410   -2.55903460006418
C         3.06795125626909   -0.07514339888632   -2.98522964549165
N         4.18225755023227    0.91602454127527   -2.94292610196863
C         3.83746257370661    1.79970969944855   -2.05127293107190
C         4.24278145046102    3.23563787893859   -1.94647879468423
C         3.76634975059563    3.76781018752492   -3.30336039532355
N         4.57885483238515    4.26734322750837   -4.18082666559980
N         2.41753203579132    3.70967477256546   -3.61210124238580
C         1.40909947524865    3.09287284417218   -2.72862732953914
C         0.16128861556368    3.99474486870363   -2.91363207308283
O        -0.82720200196257    3.70037334026672   -1.92637442500988
C         1.13618505177393    1.60663494331332   -3.04938607908952
C         1.94772185842074    0.63815787121254   -2.14196563065418
C         0.88892724909610   -0.25680543454660   -1.42622042277147
N        -0.17760658553381    0.54825007920051   -0.81067743697721
N         2.82754513910038    1.36990093786440   -1.20921699732147
H         3.62492920985956   -1.50633363927185   -1.47769096888787
H         4.36552461140174   -1.81639188231199   -3.05089492115212
H         2.64385983946874   -2.16996420618946   -2.84957524419020
H         2.78053277504053   -0.06756332661273   -4.04544074490185
H         5.32964942195277    3.31837304605293   -1.86560826719641
H         3.71426189883888    3.63419191382327   -1.07826466906268
H         5.53697616409052    4.40977688298883   -3.83744097207818
H         2.14603064209232    3.99211551831055   -4.55678098189399
H         1.73696027766742    3.17516440045236   -1.68349801299271
H        -0.35392198246266    3.88052762796904   -3.87287138411365
H         0.55270067148507    5.00155383116412   -2.72114401943500
H        -0.89685774872308    2.73153989840819   -1.82953899863044
H         1.38014953269770    1.42624285248288   -4.10485291230902
H         0.11250515806641    1.35124806765881   -2.74396521741882
H         1.25940931910871   -1.04906973719911   -0.77621760988757
H         0.32274756629760   -0.70577202450512   -2.25178100692758
H         0.18191817814266    1.05096840873738   -0.00295671710916
H        -1.01654392013883   -0.01121884229418   -0.64889437985368
H         2.31996397682032    1.92051031655369   -0.51969241307449
