35
 energy: -49.717656283305 gnorm: 0.117142072123 xtb: 6.4.1 (79825abcba525fcdf90b791dcacef51065a7a4e7)
C         3.46111780392531   -1.41651514915588   -2.64865528927901
C         2.95246064635304   -0.04153828689659   -3.05632048802842
N         4.06919068412009    0.94017522469455   -2.93370496071840
C         3.81316902648978    1.76393560424951   -1.95866643341442
C         4.30927826996560    3.17409906992754   -2.00836042833274
C         3.75330879044286    3.74419586223163   -3.31878391805531
N         4.44750231016005    4.36894238134663   -4.21735607996830
N         2.43815715655798    3.49314986520937   -3.67284874232444
C         1.34150570801744    3.10431612944523   -2.76506524819597
C         0.15114018035632    4.02933705315511   -3.12838055155106
O        -1.00556345726328    3.50081409644575   -2.47942282255377
C         0.97647169491756    1.60980058079887   -2.90451036091100
C         1.88249089799341    0.62297746906325   -2.11377591396127
C         0.91749553050227   -0.25561362655845   -1.25869807363942
N         0.44422086226367    0.52118637977493   -0.10236992367487
N         2.77404770852529    1.31606613463350   -1.16282300615131
H         3.39991726505466   -1.46728461320879   -1.55505818418019
H         4.54120886073009   -1.46682396205794   -2.82190193963502
H         3.07709526994084   -2.27759063562145   -3.19949405584991
H         2.59940441150518   -0.02666422940263   -4.09643800332727
H         5.38867105379313    3.19617798729503   -2.17892086948202
H         4.09549229434902    3.67739801679108   -1.06339498642473
H         5.42554453683584    4.33996480456010   -3.90304529116493
H         2.33635419359881    3.81782255813912   -4.63728089427184
H         1.60692842680296    3.25036936847879   -1.70923424859153
H        -0.02131634816300    4.04203664346041   -4.20945642900997
H         0.49686905086700    5.00357810770146   -2.76062350598419
H        -1.69666675173908    4.15288717028861   -2.70312844284695
H         0.98429926076578    1.21299221738451   -3.92849866000010
H        -0.03838350824425    1.58740438330198   -2.48499613337980
H         1.54804590502693   -1.06731064616299   -0.89676227594982
H         0.11617208791661   -0.70999579494738   -1.85459929515494
H        -0.42109690982907    1.04046097896395   -0.22876444527662
H         0.31556778083778   -0.16219794669490    0.64558016220624
H         2.52583040120415    1.76815719642786   -0.28518111914735
