35
 energy: -49.726974412303 gnorm: 0.110508015215 xtb: 6.4.1 (79825abcba525fcdf90b791dcacef51065a7a4e7)
C         3.54967771587097   -1.51675896395495   -2.69428076467191
C         3.06260135886245   -0.12547062921798   -3.07184909445263
N         4.09000354964904    0.94889489410220   -2.94509946145122
C         3.69822004643312    1.68525880972403   -1.94554841451336
C         4.27101981395890    3.05269306386085   -1.74761173404344
C         3.55406034909046    3.96917845663916   -2.74628378270907
N         4.00652384229856    5.15116792921951   -3.02525061044053
N         2.45860206174132    3.42402831302868   -3.39496885617622
C         1.20973480887170    2.90098686560033   -2.80788689804956
C        -0.00623284984758    3.72901850051324   -3.29821139056796
O         0.19164818693505    5.08581897068541   -2.90023960416657
C         0.99205878994562    1.38369948415346   -2.99953164038025
C         1.88331764937415    0.40861062888752   -2.17806277665688
C         0.92145357942353   -0.66339740684245   -1.57813539025123
N        -0.08353304696206    0.06957814543260   -0.79248234450155
N         2.61860433835626    1.23960957890185   -1.20422953263379
H         4.40135441271771   -1.75305168013505   -3.34319542915201
H         2.84065077595469   -2.32136244716172   -2.91572175852637
H         3.91623617381602   -1.52549352102180   -1.66573505745852
H         2.80129068246711   -0.10425295497965   -4.13861100083993
H         5.34942595433018    3.08347998984280   -1.92299560701287
H         4.17916403089135    3.42722455873954   -0.72620942370840
H         4.95148115210285    5.23238394341112   -2.62945115012319
H         2.22706338334652    3.97917226281300   -4.22207866991295
H         1.22492151547668    3.08224873846691   -1.72461712816415
H        -0.90224450079736    3.32613005970716   -2.81502237532187
H        -0.15423592788913    3.55042790616121   -4.37064778480042
H         1.15491114605314    5.24308902816601   -2.88418150772028
H         1.16504121920780    1.11404646319336   -4.04997656895268
H        -0.07554368366982    1.14343950145108   -2.90505955180255
H         1.51890770030169   -1.49564503246354   -1.20684597701650
H         0.40143895410098   -0.95949313231242   -2.49769660887637
H         0.18683433325793    0.43372835102481    0.11784322701385
H        -0.85059490751989   -0.59398280781511   -0.67290788390641
H         2.11455606713509    1.95705615535112   -0.68706491820527
