35
 energy: -49.721108746462 gnorm: 0.125035607121 xtb: 6.4.1 (79825abcba525fcdf90b791dcacef51065a7a4e7)
C         3.43619204476624   -1.46906621841282   -2.81732043323983
C         3.03701474829676   -0.03825697126217   -3.14736104765698
N         4.13697804630642    0.94776509632973   -2.93826012233803
C         3.72787452710660    1.66619100222407   -1.93261261491540
C         4.28872100389558    3.03563889019726   -1.71531423448966
C         3.56795822920992    3.94596897561343   -2.71687417440747
N         4.04711025734424    5.05760600887055   -3.17982259010364
N         2.44052517757759    3.46465529424716   -3.36126666838175
C         1.23169216971019    2.97762396953888   -2.66885767491387
C         0.04155576093481    3.85204547421978   -3.14171512229548
O         0.05880060812121    5.27640414662828   -3.04501494636983
C         0.97868938623179    1.48930337040348   -2.99621510680687
C         1.85714627553095    0.45735819722561   -2.23243877482992
C         1.05848175422799   -0.71659328950257   -1.58570127932562
N        -0.03068758843477   -0.18910843165201   -0.74905809290111
N         2.66331442283384    1.15566032279038   -1.21164302858392
H         4.29669131434508   -1.66885736322999   -3.46686041452398
H         2.72840009957411   -2.26892345196556   -3.05898350109718
H         3.76455951198014   -1.46694918053788   -1.77591849919255
H         2.79499314948563   -0.05608725406846   -4.21872561097224
H         5.37657084030704    3.13318515606710   -1.67366618066332
H         3.92311026666293    3.31934852975322   -0.72647065514710
H         4.99377283265407    5.09166607458301   -2.78124078712331
H         2.18160219580173    4.01500755017773   -4.18344479885974
H         1.23830810535348    3.16247146860023   -1.58610770531895
H        -0.83541362200867    3.56158452360278   -2.55419088623249
H        -0.19127981247690    3.63997668182704   -4.19277827173555
H         0.96898669631078    5.60863596331010   -3.16355001372767
H         0.96516336519494    1.23453560682028   -4.06438204766685
H        -0.01126899867961    1.22921193620085   -2.59776847956482
H         1.66451433369637   -1.40168552695004   -0.99340365140213
H         0.69370234358300   -1.35624306116250   -2.39900616794836
H         0.23746773972440   -0.42490694654767    0.20324874690717
H        -0.86851976717809   -0.67436821368673   -1.07395079620527
H         2.20726611580253    1.63815332006677   -0.43997347435661
