35
 energy: -49.719965519978 gnorm: 0.111791458949 xtb: 6.4.1 (79825abcba525fcdf90b791dcacef51065a7a4e7)
C         3.66812845321105   -1.25862200458340   -2.61704176520883
C         2.99254480775384   -0.01993079468890   -3.18687968569799
N         3.98079568218256    1.07878421725555   -2.98177597561101
C         3.63306205286858    1.72678865733644   -1.90753205740073
C         4.02651221854366    3.09113794789944   -1.43752892596349
C         3.63215694272884    3.77919789139849   -2.74992353996138
N         4.51646832896212    4.17835343729332   -3.60917497535510
N         2.32222753756569    3.85803861282249   -3.19250565402669
C         1.15377796494653    3.10477614157248   -2.69730044934258
C        -0.06032129523455    3.82894368496361   -3.33461997858204
O        -0.10481893219968    5.12981961330349   -2.74794482236729
C         0.99917956688091    1.63268474051920   -3.13924811877549
C         1.77725749400875    0.53606177044256   -2.35696656300715
C         0.83480067670587   -0.58962770839273   -1.82886160533411
N         0.36833104395887   -0.44593646431494   -0.44096360805025
N         2.52520507979627    1.19797926223204   -1.26976991085884
H         4.75742167327991   -1.26715467878282   -2.74212234031906
H         3.21201956365634   -2.17223872228502   -3.01253038901546
H         3.51897610132348   -1.19250791074764   -1.53735191652962
H         2.81329865756818   -0.13747407235134   -4.26426949239342
H         5.10764015186110    3.22477149241485   -1.34824503321097
H         3.52466653027149    3.35248593084665   -0.50381476848224
H         5.50088442934137    4.15384572976127   -3.31502896304168
H         2.36420421181107    4.31953956989716   -4.10418564933838
H         1.04012510077446    3.08266219255204   -1.60498461906420
H        -0.98242515030285    3.31259160757946   -3.04873082907966
H        -0.04643086514789    3.92473588753499   -4.42757479672446
H         0.82738814973392    5.41849276457499   -2.77085835427687
H         1.42296081438415    1.58969229596686   -4.15148885535148
H        -0.07983467689144    1.44819928733639   -3.22934934190499
H         1.32601645953884   -1.56046341819720   -1.88909798029538
H        -0.09374695693969   -0.66465509873712   -2.40838802753923
H         1.12764379314112   -0.46511405595029    0.23540382189142
H        -0.41603164678879   -1.03582378351323   -0.15846901341715
H         1.96849079019789    1.66891364759508   -0.55945766795990
