35
 energy: -49.723372158585 gnorm: 0.127435103745 xtb: 6.4.1 (79825abcba525fcdf90b791dcacef51065a7a4e7)
C         3.47562774689999   -1.50635460275851   -2.56918884069557
C         3.07513541683605   -0.15408846997105   -3.14056144569036
N         4.11582408156179    0.91391743060945   -3.09352425217293
C         3.85484382683947    1.58382790725642   -2.00819588770654
C         4.25273655498450    3.00031680575573   -1.73913181672871
C         3.54949633992498    3.97214837984744   -2.69428560483831
N         4.10786268134331    5.03289561869345   -3.18691846255500
N         2.36786512866644    3.64790002437052   -3.33974709385820
C         1.26420794331865    2.88549071897701   -2.72445865469458
C        -0.00025532865724    3.66876493458841   -3.16291730764763
O        -0.03160107682230    4.90326863539248   -2.44635326807283
C         1.11562928084955    1.42205204235431   -3.19620347585087
C         1.87067487079588    0.40283109633709   -2.29562225999454
C         0.87200540251219   -0.59078995753159   -1.62504560241321
N        -0.18302149570093    0.22570444132556   -1.00475766521399
N         2.75427934117022    1.08858666250238   -1.33201477700023
H         4.44527862776465   -1.82629888436887   -2.96880178973067
H         2.86199355115137   -2.38320673133258   -2.80097645300942
H         3.67462169361615   -1.41455181298953   -1.49945928320619
H         2.71455160752980   -0.23940246806400   -4.17468680681077
H         5.32743996703539    3.09188965202690   -1.91603325830104
H         4.09612886222389    3.31195553046023   -0.70456460260512
H         5.06562936784876    5.17592087883608   -2.84279012093344
H         2.21560817585568    4.35984082769736   -4.05798362408899
H         1.33435494522857    2.96973540246150   -1.63150754654152
H        -0.95001010594304    3.22565034291795   -2.84630568434148
H        -0.03019990434949    3.81389496028612   -4.25009711356953
H         0.73090192381301    5.39203965399542   -2.81044024686528
H         1.40879139524425    1.24379675564500   -4.23944421246020
H         0.04186443937906    1.19110023507722   -3.18547008419428
H         1.36254567829219   -1.21100541153672   -0.87528138282045
H         0.33527026470509   -1.07954072042667   -2.44767479965030
H         0.24813065969198    0.79016242213468   -0.27682116532539
H        -0.71880971981338   -0.48115986383880   -0.49852755735877
H         2.34218416386966    1.77256788707444   -0.70066643451601
