35
 energy: -49.709206144082 gnorm: 0.125191370698 xtb: 6.4.1 (79825abcba525fcdf90b791dcacef51065a7a4e7)
C         3.55897220622201   -1.59784825428378   -2.67160110210981
C         3.12441954120610   -0.21804200897449   -3.14360023531796
N         4.11261680857189    0.89947079222065   -3.12094345388240
C         3.86430393756970    1.54808709633248   -2.01982308764936
C         4.47020954940939    2.90425530591313   -1.84420658526265
C         3.60989332243722    3.90107454785981   -2.63003709964596
N         4.14839935703776    4.81760934843362   -3.37140073731564
N         2.23871800683100    3.84119846650187   -2.81524770876672
C         1.10904970285002    2.92692671891938   -2.55860847296786
C        -0.14728759589534    3.64109959433716   -3.12093004698833
O        -0.20008087042679    5.05647113883214   -2.94097943090767
C         1.36772942535293    1.54449893815061   -3.19755277500990
C         1.97201502079293    0.43250404164255   -2.29297661523605
C         0.98596092291729   -0.48545024036420   -1.50598622791759
N        -0.24173750473908    0.26468112334345   -1.19847768804631
N         2.78888356895834    1.11103989745564   -1.26736856654317
H         4.63221555658650   -1.81951555263891   -2.70751775975128
H         2.90160227816428   -2.42630652217828   -2.95561476666504
H         3.48198159939942   -1.61805390689508   -1.58255938876167
H         2.78717959804984   -0.36208242064170   -4.17908853732485
H         5.50180451747246    2.73168726160810   -2.16153802017965
H         4.38716452963638    3.22753070510141   -0.80470162725647
H         5.16464241860472    4.87931250514604   -3.23125677031750
H         2.01157356763547    4.66894657378515   -3.37125497999554
H         0.96454990025010    2.89070169761164   -1.47032199511594
H        -1.04045795541645    3.17594843199432   -2.69138528320227
H        -0.02336164237621    3.53015196436697   -4.20548171552069
H        -0.63995986570033    5.38955979576492   -2.13573060218424
H         2.00329574134738    1.70503515351931   -4.07866219603144
H         0.34188966759705    1.22721661747938   -3.42865798988267
H         1.55974115487884   -0.84453205676821   -0.65200738101236
H         0.74267132531724   -1.36506547489483   -2.11489339127934
H        -0.13038718257761    0.89021566584662   -0.40430882470128
H        -1.00940030921609   -0.37114082435788   -0.97617303698337
H         2.19230982828396    1.75497895806861   -0.75191171629737
