35
 energy: -49.720903990229 gnorm: 0.108288110967 xtb: 6.4.1 (79825abcba525fcdf90b791dcacef51065a7a4e7)
C         3.62466094038579   -1.39643880102302   -2.53343192764624
C         2.99905950175933   -0.15014720430134   -3.14241841615017
N         4.01754505524418    0.93981502170322   -3.11893372545485
C         3.73414763654093    1.65203461417241   -2.06667065113960
C         4.37402744229259    2.98966242826488   -1.87055689403731
C         3.55245398641939    3.91872770275505   -2.77232014613843
N         3.87611092384644    5.11533238171640   -3.15051090647071
N         2.37434171711544    3.54283503990700   -3.39583120516822
C         1.18584296897942    2.91809746243766   -2.78339291369996
C        -0.03813725116407    3.76778853671359   -3.21296169215930
O         0.37743318811725    5.13270439342763   -3.16050334490259
C         0.91041423492502    1.41016910644225   -2.97460643829514
C         1.85950212424075    0.43062382148776   -2.22649221066433
C         1.05426043351209   -0.68901599086624   -1.49691078023436
N        -0.19390764504257   -0.18013911879224   -0.90731536971676
N         2.68228170056754    1.21292459441183   -1.28277816359981
H         4.51353359694309   -1.71304195760042   -3.09195276282114
H         2.91646804538618   -2.22459918919486   -2.42501018521023
H         3.93460115942513   -1.10548280416444   -1.52763406615250
H         2.76761214207962   -0.20966199843417   -4.21461453725135
H         5.42405693478878    2.92678249229537   -2.16745976639783
H         4.32526442383983    3.35178627577460   -0.84174083458399
H         4.82051341235226    5.43844885300536   -2.90577175741567
H         2.00935497617821    4.26935196663499   -4.01620483419261
H         1.22787737250864    2.95057587747361   -1.68624289937866
H        -0.90261445102335    3.71273859523668   -2.54342732620357
H        -0.30148154484884    3.44494216813178   -4.22801801444302
H         0.86429738694346    5.29139506984250   -2.32945113075887
H         0.74997343002561    0.97886539949960   -3.97175540195162
H        -0.03746527188802    1.38431223551802   -2.42027734040796
H         1.78711114772657   -1.07037900888281   -0.78632268230449
H         0.71336548384909   -1.53408710307330   -2.10791499294651
H         0.06172722585831    0.55568181296140   -0.25339266218321
H        -0.69856736398852   -0.94020625930403   -0.44839098104325
H         2.33959371220066    1.75019300504116   -0.48895131307820
