35
 energy: -49.726092559730 gnorm: 0.113896148020 xtb: 6.4.1 (79825abcba525fcdf90b791dcacef51065a7a4e7)
C         3.61358111725868   -1.49723982537369   -2.76908535044479
C         3.00925812021830   -0.16280144641928   -3.18085269932867
N         4.08656748412863    0.85636008383315   -3.01776897619648
C         3.76590300095374    1.57651204142126   -1.98172656904120
C         4.34814179145435    2.93203331679633   -1.73532240593374
C         3.51899814517464    3.87518849431688   -2.61526634924254
N         3.83207411764930    5.12099190418311   -2.78731903514640
N         2.41660036972086    3.37265561846776   -3.28622814081521
C         1.09610281608110    2.96295640869173   -2.77014697449500
C         0.02123105267449    3.88881480425838   -3.39630091505817
O         0.27457994065829    5.14877188445628   -2.77439379738525
C         0.89315931711821    1.45700292131724   -3.04797706937797
C         1.80644890595899    0.41184355673982   -2.34548458349796
C         0.95911682272355   -0.66841612224710   -1.60429371591285
N         0.23879481205348    0.03484780157511   -0.53141999222668
N         2.59626286745540    1.17695538782375   -1.36041873655460
H         4.46349430281240   -1.65354050187799   -3.44398931085629
H         2.85566704505298   -2.27521636886249   -2.90858744356513
H         4.01848592291854   -1.53975710416069   -1.75587656775262
H         2.76127517678189   -0.17204771054191   -4.25096174632924
H         5.35507962149935    3.01962761575814   -2.15133994540780
H         4.14046725569001    3.10536046333142   -0.67758756062713
H         4.77655449066504    5.35062275351432   -2.45351659732631
H         2.24093388326200    3.98624038171524   -4.08532803439045
H         1.05742447000225    3.19553192249489   -1.69731310835011
H        -1.02575228209348    3.70878372836375   -3.13164585632364
H         0.12671482905148    3.83089578982554   -4.48691445405169
H         1.06000931658141    5.53205465029364   -3.20920672143327
H         0.99626574162963    1.27935150197184   -4.12680942225634
H        -0.14355339871140    1.24686150503666   -2.75218626558726
H         1.65969730621706   -1.40573534489627   -1.21315344950176
H         0.28273302500994   -1.17426904871062   -2.30450687884134
H        -0.05747433032117   -0.68337747440009    0.12491344981594
H        -0.54991774106353    0.61903305092602   -0.81365249572818
H         2.13254833892466    1.69141904492108   -0.61439631559215
