35
 energy: -49.722604597016 gnorm: 0.112930704339 xtb: 6.4.1 (79825abcba525fcdf90b791dcacef51065a7a4e7)
C         3.55632515237332   -1.32776808222827   -2.11393443225036
C         2.74545531458007   -0.27342942703556   -2.85308568253920
N         3.65449680672204    0.79413234350595   -3.36282822277263
C         3.70596844794438    1.62968165658560   -2.36581445676243
C         4.46814202915467    2.91122448429217   -2.48368880612949
C         3.62741925503147    3.86546125200645   -3.34039154832714
N         4.13576809175978    4.68768673299874   -4.20362473090280
N         2.24750153059633    3.92611489642160   -3.23960440758355
C         1.29071054668376    3.13791408855014   -2.43885633262017
C        -0.06693517610976    3.85848142609011   -2.64431351873633
O        -0.03862426515254    5.24240608384979   -2.29446069919008
C         1.10131901384009    1.65600131101285   -2.83171370708586
C         1.82270228795235    0.60964928291022   -1.93466001932299
C         0.88252130114446   -0.10238437261786   -0.91320793407016
N         0.04020928255405   -1.09517675135720   -1.59831795111747
N         2.93335193630558    1.31299995546092   -1.26286231363326
H         4.03820397292723   -0.80429750165409   -1.27963889605428
H         4.28142489199854   -1.79754512057378   -2.78675089023951
H         2.88583106958233   -2.08308877837901   -1.69887298824987
H         2.12403359936660   -0.58665156723434   -3.70305119790267
H         5.37556031812848    2.59551014876697   -3.00482568796977
H         4.59190060582322    3.32410139335494   -1.48059834500664
H         5.16001160145885    4.74636278529669   -4.26428704032316
H         1.82343861979190    4.43762035749427   -4.01706077700060
H         1.58324156595130    3.38627890777051   -1.40963312408697
H        -0.83706871664380    3.45160918250614   -1.98100596923091
H        -0.44223731470148    3.68034183744648   -3.65985964048096
H         0.77131976763305    5.55014776373539   -2.74407496110735
H         1.62395288452537    1.62349473946373   -3.79704649324181
H         0.02867761779270    1.50990873657214   -3.01751539185121
H         0.38735131229896    0.72414089589786   -0.40418334709181
H         1.55285825913333   -0.61222244783390   -0.21007621445106
H         0.55806649606606   -1.89791416958844   -1.94736391132153
H        -0.60240042334446   -1.56223010212927   -0.95651656515591
H         2.85194523640095    1.92105715581223   -0.45052440726249
