35
 energy: -49.715760453327 gnorm: 0.112078947796 xtb: 6.4.1 (79825abcba525fcdf90b791dcacef51065a7a4e7)
C         3.57051262464844   -1.57376553746383   -2.44703002625328
C         3.05804371892692   -0.31599070134307   -3.13322427580746
N         4.12421948443060    0.72728138922575   -3.10612074796121
C         3.85095942046477    1.49080851047847   -2.08769859372376
C         4.35109051145974    2.87593479178471   -1.82607101906087
C         3.64805132964841    3.99322163394378   -2.60628136638383
N         4.26440651943996    5.01101374387884   -3.11994496749197
N         2.32364727274510    3.76636027870860   -2.94168805388116
C         1.14054558053735    2.92812249069845   -2.66685214433295
C        -0.01217974846385    3.64223644728429   -3.41911368505587
O        -0.51068733424560    4.86635257370206   -2.87922864635601
C         1.29647400051895    1.55219158194696   -3.35152143882497
C         1.87307043017812    0.44111949688186   -2.42793758608784
C         0.68488418825505   -0.31542526810122   -1.75700534182024
N         0.34833431488657    0.39153084043302   -0.51143348985140
N         2.67096571236183    1.18536737760498   -1.43344515624176
H         4.52403827317959   -1.89926274715563   -2.87960151124699
H         2.88270025029176   -2.39882049333731   -2.65996321846574
H         3.72382125739425   -1.43159911224131   -1.37528712718172
H         2.85080082556759   -0.46289287408836   -4.20195462978339
H         5.42534792347695    3.07750923028275   -1.82849688872398
H         4.11201938791161    3.07751499995031   -0.78003831018162
H         5.25999947300459    4.97239642862358   -2.86795103892105
H         1.99896663855681    4.59334188684618   -3.44823470855412
H         0.93748314958661    2.85200036303378   -1.59003695093659
H        -0.85889090167922    2.96625369700634   -3.57645136211924
H         0.35677055921507    3.85690885639959   -4.42991077833154
H        -0.69756103297442    4.78062040016644   -1.92497738202806
H         1.88792252189338    1.60173743360724   -4.27553663373460
H         0.28240303073962    1.25809937849581   -3.65416766524362
H         0.80343919746326   -1.39483317579751   -1.66608424805417
H        -0.20338128929937   -0.08198033398214   -2.35714584738415
H         1.03421303898696    0.08913380249104    0.17596955774029
H        -0.53023942004325   -0.04269702268933   -0.22411929701394
H         2.24666830088148    1.73054873894255   -0.68578047428576
