35
 energy: -49.720389525653 gnorm: 0.128040947372 xtb: 6.4.1 (79825abcba525fcdf90b791dcacef51065a7a4e7)
C         3.67724360666683   -1.44232298851984   -2.57866579275040
C         3.11928626632948   -0.11859419841181   -3.08057228787970
N         4.17216362922806    0.93795466788721   -3.04838923414607
C         3.80969861988189    1.60728306884692   -1.99224197996696
C         4.30652631452838    2.97834264048714   -1.65980728166280
C         3.61149523202058    3.81478005005753   -2.74083754393268
N         4.24955296794283    4.71359943028005   -3.42249057459850
N         2.29561960621145    3.64502679039061   -3.13790806019715
C         1.12546161914262    2.98136346435508   -2.53112288527371
C        -0.12490640444034    3.71304122864144   -3.08416835310809
O        -0.18763811866162    5.09421675108819   -2.72798740902845
C         1.11419082127098    1.53565414705170   -3.07524519697398
C         1.89973345598241    0.45948637509264   -2.27228978731635
C         0.88873425697705   -0.59082511811568   -1.71639146631695
N        -0.14512362505236    0.16545496171490   -0.99273388291008
N         2.69607211985504    1.20453514601991   -1.27714959471343
H         4.63432677404648   -1.66996606061684   -3.06286422467353
H         3.20619114373248   -2.39693978138419   -2.83548952406903
H         3.66934689284876   -1.43695471493455   -1.48676081190562
H         2.77903027397825   -0.23744576663821   -4.11826905576568
H         5.39208883009989    2.98361186458084   -1.78706056830149
H         4.11850536288021    3.39555957843291   -0.66856960501490
H         5.23767168883999    4.77036506897474   -3.14572962827902
H         2.14710915721552    4.22610432190882   -3.96627943865827
H         1.20234427399308    3.08632469295694   -1.44042032525299
H        -1.05599620233586    3.27934642986059   -2.70521162380642
H        -0.23054405926232    3.56891108741387   -4.16675161339514
H         0.52976658824896    5.47681354246313   -3.26818870817688
H         1.44771770218717    1.52593771009503   -4.12154134196388
H         0.05026149477485    1.26317013504651   -3.09046779562595
H         1.43887394085271   -1.43581913133426   -1.30314238577169
H         0.37484709112471   -0.95465819925924   -2.61484913727496
H         0.17615128936215    0.39807269607296   -0.05621481857921
H        -0.92842755085746   -0.47311867832646   -0.84558174256374
H         2.27945021730466    1.65652100979146   -0.46573820585835
