35
 energy: -49.722624901453 gnorm: 0.121824835195 xtb: 6.4.1 (79825abcba525fcdf90b791dcacef51065a7a4e7)
C         3.72555581552078   -1.26534579877494   -2.57808089782961
C         3.03552353778277   -0.01786205016038   -3.11017506623250
N         4.05741856631423    1.06368554734575   -3.21911244666509
C         3.79604795763865    1.69343778166635   -2.11009217188232
C         4.28023561946529    3.09827870004748   -1.93938987090599
C         3.57639112945151    3.71307986007660   -3.15509734043836
N         4.21338722249863    4.24633907309160   -4.14984122207584
N         2.19987612922675    3.66823835916262   -3.30071849051495
C         1.13366420835486    3.01046532378665   -2.52069686855754
C        -0.19764996459506    3.68657478480480   -2.93915881716675
O        -0.24261957640519    5.08500580271238   -2.65488012330870
C         0.95733625086809    1.51387232617045   -2.86038700128570
C         1.88399852407584    0.47885190994822   -2.16040024915755
C         1.01504784326588   -0.53913995130291   -1.35858116854647
N         0.14625616472601    0.21051610620897   -0.43786471306681
N         2.80783189345273    1.21046163426978   -1.27111060880563
H         3.91457703445761   -1.02378087260456   -1.52537246163619
H         4.67899490686845   -1.57361975699265   -3.01974043232831
H         3.04489085220212   -2.11474530959055   -2.66504840502293
H         2.58424835728563   -0.17277643647593   -4.09965304335721
H         5.36543700370847    3.19693435034166   -2.02466682328609
H         3.98339053489815    3.48014495231102   -0.96059716726759
H         5.23703245474828    4.25758660574972   -4.05916877006802
H         1.95910367180824    3.94525939677568   -4.25528308268711
H         1.35557346242998    3.10574181152698   -1.44913793248358
H        -1.01583890311470    3.17366085251679   -2.42329667203969
H        -0.21106968460156    3.43203723055918   -4.00637476598043
H         0.49041297040792    5.49574435825620   -3.15169435891001
H         1.18083008193217    1.31123048040294   -3.91634959716968
H        -0.11890736313510    1.30586807524273   -2.79068208031944
H         1.46592805580030   -1.34186008761765   -0.77566542492696
H         0.39108366923925   -1.01838376320097   -2.12322147008035
H        -0.55381834134482   -0.46190260211822   -0.13431025826629
H         0.59641116722303    0.48143380610067    0.43789733119260
H         2.55827843638762    1.82858700110088   -0.50176180116962
