35
 energy: -49.726369301379 gnorm: 0.104441887130 xtb: 6.4.1 (79825abcba525fcdf90b791dcacef51065a7a4e7)
C         3.69572066613791   -1.58389626486898   -2.64565069091885
C         3.02125540497333   -0.36533577815560   -3.25858740848684
N         3.99672629059255    0.75872048950989   -3.36268392149605
C         3.84933568770242    1.49591038748035   -2.29983139336969
C         4.51994488383850    2.81879143147973   -2.10637858488063
C         3.54133108640008    3.94335634254883   -2.46553173596573
N         3.96187015399245    5.16670460640958   -2.38672351082333
N         2.25978219473101    3.80313406577912   -2.97147638924776
C         1.16205857293252    2.85471328641871   -2.70053754576050
C        -0.12358355206729    3.64269674611010   -3.06225322647303
O        -0.21511398482542    4.92755197677350   -2.44644873248124
C         1.30944686830485    1.45489754457533   -3.33698403655824
C         1.91812904051275    0.36567678358275   -2.40797602509938
C         0.79077534208412   -0.39728844185148   -1.64557566919556
N         0.00534378964899    0.62986643851754   -0.94375509171717
N         2.86599732321621    0.99377578072893   -1.46638463224018
H         3.85499077473749   -1.28990946199616   -1.60138899898034
H         4.64147432373895   -1.83924725493401   -3.13502577810718
H         2.99542303619408   -2.42129810496195   -2.61940072514870
H         2.55959244046255   -0.52538479139421   -4.24244006956595
H         5.31649134065166    2.93648390024477   -2.84551955614859
H         4.84316305268416    2.99571787311322   -1.07866215881066
H         4.93559207491213    5.37486140237121   -2.13229487518584
H         2.07461542627143    4.60370965595120   -3.58032578817036
H         1.19114321988263    2.77859411743188   -1.60512901148378
H        -0.97549697318312    3.00982019206799   -2.79329525938045
H        -0.20587326825323    3.90830746204807   -4.12366675580180
H         0.27673352374560    4.92371976270520   -1.60327698060696
H         1.93605476526701    1.55061525381909   -4.23379554821225
H         0.30617109064409    1.18055720300602   -3.68997125264014
H         1.24996776420318   -0.97143811750392   -0.84125120693411
H         0.18306822505563   -1.01125711226897   -2.32190047936010
H        -0.54366012103982    0.13121771586710   -0.24780918858638
H        -0.63424474667358    1.06625991640753   -1.60969977817806
H         2.52849852260175    1.62980257326853   -0.74678893062825
