35
 energy: -49.726331105584 gnorm: 0.116432490291 xtb: 6.4.1 (79825abcba525fcdf90b791dcacef51065a7a4e7)
C         3.79534971615758   -1.37002331101865   -2.55680465895519
C         3.06002056880874   -0.15173422198210   -3.09582893432882
N         4.00622529212184    0.99951883185705   -3.02375239197095
C         3.64489644283338    1.71150240337076   -1.99547748967954
C         4.08245705959656    3.10964077109438   -1.69397335269550
C         3.66745114724373    3.82406059764554   -2.98575374918835
N         4.29457362394441    4.88473376566772   -3.38741856726838
N         2.43764227217983    3.50639913291447   -3.53772399309538
C         1.29343732249719    2.99017187581971   -2.76170119228596
C         0.01589642174208    3.85197615039340   -2.93436967031751
O        -0.04512041051064    5.14283513609972   -2.32740513282953
C         1.04478554957649    1.49773850711337   -3.07328812685331
C         1.85731517947322    0.44018487862654   -2.27245883505049
C         0.92263156694390   -0.68482700613587   -1.72930938635671
N        -0.24659694667079   -0.16334755461738   -1.00441916952520
N         2.66672426905403    1.10214524459117   -1.23023893618825
H         4.18093036011344   -1.22826135761561   -1.54018831413487
H         4.62568363514381   -1.54467857487129   -3.24903525758305
H         3.08566421150845   -2.19832164960598   -2.60795162378284
H         2.67017945364954   -0.33943160515567   -4.10553582966791
H         5.16647979120668    3.24919548967248   -1.70326528367634
H         3.60426740505627    3.52336843575541   -0.80395196758180
H         5.24033292628561    5.03430362111018   -3.01410132979312
H         2.10384128403736    3.99656281904259   -4.37092387424598
H         1.54440630071985    3.11077169383181   -1.69914290205461
H        -0.83972992563609    3.35943802880232   -2.46114950240305
H        -0.24507061711358    3.87147316335371   -3.99993777229131
H         0.55336152966111    5.74186731568680   -2.81304601934324
H         1.18332939699910    1.32973320342711   -4.14969418626177
H        -0.00660315390821    1.27004143260260   -2.85156601071748
H         1.42790077044960   -1.44400348203966   -1.13282179016829
H         0.50009908747759   -1.19172276235312   -2.60578168839129
H         0.17905613757740    0.42034467704890   -0.28851458839186
H        -0.68927145853943   -0.86995133844449   -0.41471971049579
H         2.22913703314661    1.69048753088392   -0.52410563128075
