35
 energy: -49.717471964903 gnorm: 0.115493050679 xtb: 6.4.1 (79825abcba525fcdf90b791dcacef51065a7a4e7)
C         3.58815318557734   -1.29642954758582   -2.57274946153647
C         2.92082945009254   -0.00587675884653   -3.02511763990964
N         3.99240203021367    1.03037466762766   -3.08673898242923
C         3.81424356267070    1.81130267559902   -2.06046443589350
C         4.39232594165690    3.17862674009968   -1.87770600929365
C         3.84882438883536    3.68864478735285   -3.21778431792439
N         4.57855059290995    4.06408727644180   -4.22087326066282
N         2.48199216611247    3.66815048158230   -3.43995433467836
C         1.33341193076335    3.22048490229364   -2.62861843230870
C         0.13380635963496    4.08551221417381   -3.09477939347048
O        -0.94964506349254    4.03164429567609   -2.16651369302930
C         1.05844611682448    1.72139845356557   -2.88042220219081
C         1.84358639508912    0.64305167573989   -2.08000066617670
C         0.85722212032102   -0.40712767423374   -1.48124748414964
N        -0.21392254816100    0.12216367925917   -0.62275944335336
N         2.80392138981920    1.36898227975274   -1.22540229352834
H         3.92576675189957   -1.15329209504272   -1.53940226417193
H         4.42364567388483   -1.51627061703187   -3.24562707822018
H         2.98205747037560   -2.19254803750242   -2.42453577580994
H         2.58734325317032   -0.20060943313183   -4.05350499635146
H         5.48445576537321    3.14705439088005   -1.90808336446643
H         3.90961895670307    3.61826404530293   -1.00267057157079
H         5.58836581065890    4.01873858510356   -4.03536236956161
H         2.34902328940812    4.13630778637967   -4.33942841057997
H         1.55621107691281    3.36969503844892   -1.56341575000658
H        -0.22723175159858    3.85616374290284   -4.10258808035314
H         0.39538759486540    5.13286174446303   -3.29112994627026
H        -1.14831024515601    3.10905533917325   -1.91705623886907
H         1.32656594734199    1.49544729587288   -3.92115657925265
H        -0.02080202909549    1.51732563591540   -2.88202876153359
H         1.52272415605911   -1.04203364298435   -0.89691469555042
H         0.40452823420508   -1.03270748410968   -2.26060545217612
H         0.32332449295266    0.67437064929991    0.04119056868007
H        -0.63970094991249   -0.71907191795402   -0.23029223682993
H         2.47194332085070    2.00560501208500   -0.50376835662998
