35
 energy: -49.716194424166 gnorm: 0.122039339262 xtb: 6.4.1 (79825abcba525fcdf90b791dcacef51065a7a4e7)
C         3.45550320676467   -1.38533167757879   -2.93225187347676
C         2.84775104559015   -0.01202866425509   -3.17752843823473
N         4.01466968376282    0.90595489651133   -3.03093686764071
C         3.80804339562321    1.63846403897116   -1.97473406269015
C         4.50676262353690    2.95022670302385   -1.80673078891761
C         3.91960780375551    3.76914399894603   -2.96256203241746
N         4.55722522848246    4.45212338343823   -3.86068673544345
N         2.54693602629635    3.77042015809689   -3.14635647976777
C         1.33202355548066    3.16881631182827   -2.56328918619649
C         0.24852341406255    4.09862427200954   -3.16836476695998
O        -0.99377168493147    3.85114982017533   -2.50964991945062
C         0.95371341787071    1.72761299904681   -2.97082568811312
C         1.77246687782572    0.63333792265519   -2.22775332982323
C         0.89864249194362   -0.38843019419878   -1.43609846185337
N         0.06514738760299    0.17332664186122   -0.36175347947154
N         2.72244098768703    1.18970931957725   -1.24410856792612
H         3.62935417975705   -1.54132359041812   -1.86093490599001
H         4.39063142534828   -1.46746518335390   -3.49610591849138
H         2.78613268830096   -2.17739090485706   -3.27420648722926
H         2.53741186788282   -0.04478253481918   -4.23077636794154
H         5.59821768791302    2.90732990442878   -1.84613688931527
H         4.22647542928627    3.30522628003976   -0.81305660151873
H         5.58311200762790    4.45751360691303   -3.79965539716248
H         2.34612613402582    4.36548600066291   -3.95349812349024
H         1.29801464469318    3.30712753609873   -1.47412744923878
H         0.07846839107451    3.92923231039709   -4.23654792161573
H         0.52445757030055    5.12803806570550   -2.90743006130942
H        -1.70962309775632    4.45491232299042   -2.78514013040094
H         1.25191011720315    1.59459632333812   -4.01937493031486
H        -0.13423075170264    1.76929078518769   -2.82568672440989
H         1.62893443416353   -1.16766764574066   -1.21952043701985
H         0.23430708687933   -0.86915155365572   -2.16496481312777
H         0.58054070475455    0.20286425700290    0.51454201670583
H        -0.51755851983401   -0.61692786134725   -0.08077886622826
H         2.27969149875752    1.89541839729250   -0.65912901161211
