35
 energy: -49.719001377370 gnorm: 0.110389893316 xtb: 6.4.1 (79825abcba525fcdf90b791dcacef51065a7a4e7)
C         3.64581946405487   -1.48075163275941   -2.29790559046704
C         3.00854686048757   -0.29077697248398   -3.00027899826172
N         4.04448869674235    0.76529556502236   -3.19371459285865
C         3.88455393021393    1.63608422523898   -2.23926374835212
C         4.48081187738667    2.99982093528486   -2.09143411354177
C         3.70723852079466    3.86025489567886   -3.09769444513492
N         4.19587388429237    4.60073301067917   -4.04245497085429
N         2.32324990191293    3.82726902320120   -3.05899983694967
C         1.21590471421419    3.04576706789232   -2.47509205780284
C        -0.18310179448335    3.59451538185973   -2.85756808677199
O        -0.34365343645736    4.91124133195088   -2.32945644974433
C         1.19355111956637    1.58596445678976   -2.97981793565100
C         1.96038775206446    0.51701190089346   -2.14960486764714
C         0.87874635421453   -0.36455618465357   -1.45161763269792
N        -0.37422292982077    0.31160850477063   -1.08098133923968
N         2.96240090738080    1.19785849086203   -1.30581903792427
H         3.93308916031144   -1.03979637949073   -1.33597405627688
H         4.62348747280646   -1.76643567532667   -2.70001499982250
H         2.90539544261375   -2.27228349008413   -2.16525092989470
H         2.61880659773792   -0.58706253443645   -3.98365676113049
H         5.52953264566091    3.03907114619346   -2.39690312273128
H         4.34016705944424    3.34983160521999   -1.06689247428157
H         5.21627710749768    4.71804507912077   -4.07727884727434
H         2.08649520030531    4.16483455088070   -3.99489637897524
H         1.28332707291470    3.10246156620153   -1.38019487113705
H        -0.95675401108217    2.99251305353524   -2.37004060995437
H        -0.34914136846350    3.40401170251985   -3.92530332478446
H         0.21941737618455    5.53685662274856   -2.82384903517222
H         1.57076651685195    1.53815991688801   -4.01010599690065
H         0.14905671674088    1.24787220298316   -2.94590689881199
H         1.21859583731079   -1.08523363035566   -0.70826730690863
H         0.64069980394132   -1.08042876011367   -2.24819846169961
H        -0.97678710591742   -0.43283010558538   -0.73874734100008
H        -0.12281397920223    0.94819575583040   -0.32299367547344
H         2.57644972994833    1.96892539256931   -0.76475432539853
