35
 energy: -49.724181649717 gnorm: 0.100390035778 xtb: 6.4.1 (79825abcba525fcdf90b791dcacef51065a7a4e7)
C         3.36669217057649   -1.45160659796853   -2.39310321844081
C         2.85264925731076   -0.18516462779200   -3.06195977022327
N         3.91602682585257    0.83101889491024   -3.31192219353410
C         3.88036345105114    1.62556797984573   -2.28126788187476
C         4.47804991090178    2.98613761799578   -2.11163263725917
C         3.81309870683531    3.84823197444752   -3.19142679616450
N         4.51562661359948    4.64274308242714   -3.93631031755574
N         2.44679085496181    3.86024553150017   -3.41740994194975
C         1.34612906084613    3.16841976425839   -2.71896330418183
C         0.05781243209892    3.86232661072626   -3.23215469320698
O        -0.96826921492617    3.62781527534615   -2.26747503020758
C         1.14409224400172    1.65702484170822   -2.96622442059720
C         1.88648159019756    0.59953668834246   -2.09989389610293
C         0.91934008795803   -0.23614969834562   -1.20515250415366
N         0.02066474597505    0.66970508831866   -0.47281943957691
N         2.97633990604643    1.21584239897294   -1.31763237303036
H         3.91554763222194   -1.24654570491661   -1.46628856686992
H         3.95681555987534   -2.04738054152430   -3.09734030881483
H         2.47956397528356   -2.01262358155505   -2.09208630478344
H         2.32565629360110   -0.41971205795238   -3.99682893430731
H         5.51510407525603    2.92837980649739   -2.45199986736231
H         4.26646073592209    3.33941362591722   -1.10049461982070
H         5.51981403883111    4.77522013286179   -3.76237064737343
H         2.23801690198538    4.31734993611361   -4.30812572120282
H         1.46717758696281    3.44949455577411   -1.66402059949454
H        -0.39784397397974    3.44033697323268   -4.13378076983131
H         0.21905097390599    4.92001129160585   -3.47551570108244
H        -1.01517114863776    2.66674062074361   -2.10314919898687
H         1.48595479339362    1.48440020060679   -3.99549647005148
H         0.06632167279968    1.54277502179751   -2.78794805742200
H         1.51917310023134   -0.85643135716865   -0.53964939608583
H         0.29931338280413   -0.89574198389896   -1.82497958792874
H        -0.51579445103828    0.13840261960068    0.20859508661306
H         0.52047132480134    1.44482837993252   -0.03421671215201
H         2.74816540143444    1.78663017092637   -0.50621928070906
