35
 energy: -49.724545178234 gnorm: 0.122378817150 xtb: 6.4.1 (79825abcba525fcdf90b791dcacef51065a7a4e7)
C         3.60364326582025   -1.32980837120772   -2.60600444532790
C         2.99154289848884   -0.06040873449190   -3.17997495889270
N         4.03279418868805    0.99855039101312   -3.03755544418193
C         3.74199757243656    1.64750712911000   -1.94708725315763
C         4.27619336784621    3.00706078449995   -1.62552293042590
C         3.56861982129192    3.90228652737129   -2.64984353597309
N         4.14100284977030    4.88784852685615   -3.26684435508801
N         2.37493805683748    3.51675401641954   -3.23678335676572
C         1.15778711267307    2.95761164201532   -2.61725905818417
C         0.03557467761391    3.83448261667950   -3.23074774540338
O         0.18674363235859    5.23018620637866   -2.97073738199939
C         0.93929665545972    1.47694681613707   -2.99957452832253
C         1.84185706152099    0.46163790869862   -2.24162716076723
C         0.91544543497049   -0.69797133771776   -1.76062359830455
N        -0.05722870861850   -0.21997525056378   -0.76567298829378
N         2.63502656259655    1.20687801009907   -1.24410210121745
H         4.53646784098279   -1.58723421180997   -3.12160887779597
H         2.88916228707459   -2.11393691760514   -2.87766864621557
H         3.83028039803672   -1.41591636361167   -1.54131261889498
H         2.65632440946196   -0.14092539362265   -4.22298025286152
H         5.36880034073195    3.03340254731719   -1.61198675365756
H         4.04481446589562    3.30771955811789   -0.60178366206092
H         5.15278233863781    4.89422788640025   -3.08668016482469
H         2.22735417313353    3.84511723284963   -4.19402010068957
H         1.18438110081133    3.14654887070103   -1.53552186417044
H        -0.96124954730439    3.60905057352827   -2.83812903720742
H        -0.11229785185306    3.80850905791979   -4.31766007435809
H         1.08894648777393    5.50068747682521   -3.22710885165982
H         1.03734260713413    1.25545479482219   -4.07074140278741
H        -0.11230244984987    1.23604168720394   -2.79334913843320
H         1.48767451851626   -1.54240878683741   -1.37731873491220
H         0.26129758057356   -1.02088559468382   -2.58007321210596
H         0.48734948482689    0.15735818894860    0.00598147099578
H        -0.64713936249282   -0.98883527921311   -0.44340794154572
H         2.11509537847549    1.68216001038215   -0.50923337385508
