35
 energy: -49.724420305470 gnorm: 0.097004457548 xtb: 6.4.1 (79825abcba525fcdf90b791dcacef51065a7a4e7)
C         3.50883639080586   -1.43480365166654   -2.67800998915562
C         3.11637782077175   -0.02071760177307   -3.08028022278637
N         4.13875672936185    0.99028071400694   -2.68215241441590
C         3.54469811820215    1.73816351380126   -1.79750894036093
C         3.95562001585299    3.15041250518559   -1.52575377259573
C         3.63037996810384    3.86372933779450   -2.84360057005529
N         4.45658954594012    4.65086663244327   -3.45795991166771
N         2.46933938060363    3.50058157986177   -3.50550560669129
C         1.24959138131955    2.96274877703682   -2.87237241680635
C         0.03459053891335    3.85381595802610   -3.23898395016606
O         0.00632118969270    4.98139196277550   -2.36364450698221
C         1.00954802493952    1.47959224087664   -3.23139522450179
C         1.79838185417397    0.45576418790898   -2.36567647785473
C         0.87185824011844   -0.66632431604325   -1.80285509898277
N         0.17556339055044   -0.04140524702810   -0.66744697435325
N         2.43817891233032    1.13823476321987   -1.22355102131588
H         4.47006473036570   -1.71200312624907   -3.12687322964482
H         2.74762353216221   -2.15048687426738   -3.00587365536279
H         3.65239119724377   -1.44070226337541   -1.59555680850682
H         3.08784793905711    0.00740505943451   -4.17805504582954
H         5.04654275833209    3.18541122526951   -1.46804942156301
H         3.45299388801087    3.74879308348016   -0.76333548718973
H         5.29882576126700    4.88199012121428   -2.91627951763013
H         2.34656785455190    3.92855792268721   -4.42619501303033
H         1.30898005450869    2.92696354111164   -1.77612779236832
H        -0.93062410601519    3.34237749385925   -3.16537033561977
H         0.11781604583417    4.22202348008350   -4.26923442984360
H         0.71828428157709    5.58482214313273   -2.64973510968785
H         1.22768878228989    1.33610973034350   -4.29811804322666
H        -0.07036064521296    1.29481652261781   -3.15342051538294
H         1.55143768146422   -1.48907006505223   -1.58216397959058
H         0.29115160254155   -1.03989405791751   -2.65544301212193
H         0.81861588081434    0.00564295270011    0.11910658415010
H        -0.60520211524352   -0.56087154756736   -0.26302755068445
H         1.85071611254423    1.57028504238850   -0.51328805828691
