35
 energy: -49.715674118110 gnorm: 0.110577291016 xtb: 6.4.1 (79825abcba525fcdf90b791dcacef51065a7a4e7)
C         3.61181961303547   -1.36072175898717   -2.92645638396835
C         3.04346409616639    0.02109353722310   -3.21462804676549
N         4.03173123988752    1.12516334774613   -3.04073184184707
C         3.71972838029570    1.67300698336043   -1.90171911765355
C         4.10761885356537    3.06350156077918   -1.51028488386167
C         3.71441860639125    3.81396203160253   -2.78837910603821
N         4.47499698618099    4.68632769677328   -3.37159730960011
N         2.39735220084042    3.66958149853020   -3.19149220445893
C         1.22100148690056    3.03885107159349   -2.56198042718690
C        -0.04988103385741    3.73001868503509   -3.12035017312233
O        -0.16544521757107    5.15307204743639   -3.12351126769333
C         0.97861210807554    1.56933827520619   -2.97192070936247
C         1.83060619882955    0.44932856378177   -2.30887021738981
C         0.89729759721263   -0.63616692198430   -1.68844205692482
N         0.05190740954480   -0.16551516105121   -0.58015314961448
N         2.63135198603386    1.11035457355988   -1.25939048268872
H         3.85664696870130   -1.37622017413530   -1.85776697912683
H         4.57917719864113   -1.53572139377767   -3.40888410048954
H         2.84165263062298   -2.10101672347437   -3.15262854210132
H         2.79932937686356    0.13553109871282   -4.27953024362755
H         5.19672009533531    3.03568481433781   -1.42224024473634
H         3.57796022980816    3.43208835429835   -0.62961495970005
H         5.44170393910886    4.71736211410655   -3.02416084849388
H         2.09894232378048    4.25580832069648   -3.97456004692132
H         1.32036919353515    3.20358102696388   -1.48052309067760
H        -0.91750855098603    3.34370818124367   -2.57572711195229
H        -0.12037772186416    3.47465739790966   -4.18512252422940
H         0.70274028730170    5.56216229143700   -2.94528006948864
H         1.08375757010681    1.63079711453883   -4.06335895277618
H        -0.07061640605407    1.28079332812177   -2.82263509346419
H         1.37026015501283   -1.53849843111223   -1.30172820710239
H         0.15631835670942   -0.89157528973017   -2.45616403039201
H         0.59368527690953   -0.01365646907656    0.26708484235232
H        -0.35090748604373   -1.08230698458120   -0.37958395458804
H         2.26349997316366    1.43836206123242   -0.36868882071352
