35
 energy: -49.720751521364 gnorm: 0.104776378634 xtb: 6.4.1 (79825abcba525fcdf90b791dcacef51065a7a4e7)
C         3.35378144454023   -1.53067002801239   -2.60477718062713
C         2.94660480910046   -0.15696193641369   -3.11723959016487
N         4.07054898029852    0.81995271935467   -3.20817510154481
C         3.99528518073244    1.54440889014481   -2.12913523178951
C         4.56038859801252    2.92527194322626   -2.02411004147178
C         3.86714345604639    3.85010358277934   -3.03179043982696
N         4.37572740544149    4.53200227329999   -4.00954365215618
N         2.48317791976931    3.81789471436993   -3.07193789649619
C         1.31535487987213    3.16988498663846   -2.44410056221792
C         0.11360660119924    4.02921873620979   -2.91524642642980
O        -1.01150741139523    3.79914990060253   -2.06693472023914
C         1.26513260479611    1.72427591478227   -2.98628475885701
C         1.99227933068642    0.63382220547528   -2.14835870528391
C         0.85833093712667   -0.17647618788481   -1.44702131875649
N        -0.36516831383721    0.59038663704718   -1.16511182447377
N         3.00365396269220    1.19419080132793   -1.23039065335448
H         3.53271045530606   -1.57805700801245   -1.52402902978213
H         4.31311789673696   -1.83194890930825   -3.03842068633059
H         2.57764318537646   -2.26583909807620   -2.82722607211635
H         2.54638838079573   -0.20503825622025   -4.13911527035011
H         5.57172598238149    2.74837305954821   -2.39903753614124
H         4.55691210528480    3.43542924057016   -1.05886321302148
H         5.39435545425456    4.64296307236619   -3.93028355388777
H         2.19870744274462    4.22204979279874   -3.96728186707775
H         1.28590386322930    3.18031914649592   -1.34610982925029
H        -0.08982585320943    3.89162368194373   -3.98216274575251
H         0.47128949112752    5.05174183489882   -2.74080789860700
H        -0.99736788903926    2.89275665769776   -1.70483166331248
H         1.75031424695041    1.83711754961686   -3.96502668944990
H         0.22156628205400    1.39862207029655   -3.09279197497633
H         1.19530687039476   -0.62891316757004   -0.51471699022886
H         0.62197773635337   -1.03455182588581   -2.08852274181098
H        -0.42351393864066    1.02859674273267   -0.24916192006875
H        -1.14787810195583   -0.05194621765419   -1.29841215245809
H         2.71320637157278    1.84929597479507   -0.50738934343949
