35
 energy: -49.725308426636 gnorm: 0.110991350412 xtb: 6.4.1 (79825abcba525fcdf90b791dcacef51065a7a4e7)
C         3.73881595294708   -1.41615824362389   -2.71479176352896
C         3.07980992516371   -0.12158887670705   -3.16787632954443
N         3.99435636510431    1.05534081627568   -3.10212459288570
C         3.73689898557436    1.69474488983945   -1.99772134663235
C         4.13512758797360    3.09128481604864   -1.63960806236994
C         3.59905021057016    3.88535182110513   -2.83685523996894
N         4.35377608830088    4.71623935839296   -3.48466658905515
N         2.25822572347002    3.87313628045173   -3.18333797725715
C         1.20298042387772    3.03276498974235   -2.58488966930556
C        -0.12047989410442    3.75811601386483   -2.94119077837603
O        -0.09639969433282    5.18118623018297   -2.82833135881021
C         1.15886773434699    1.56228785134010   -3.05608231805381
C         1.87835522945885    0.40790576728590   -2.30130330279367
C         0.87346480446586   -0.67605309032983   -1.80177860629952
N         0.15643770226575   -0.28425411890665   -0.57831317849955
N         2.72821375852142    1.06643188274562   -1.28955197864498
H         3.93125858726065   -1.47043584793830   -1.63669276696665
H         4.68373852550618   -1.51803272624415   -3.25874488442910
H         3.26615981431795   -2.37492655211137   -2.93774278706702
H         2.72504932301845   -0.26755699164878   -4.19722205955405
H         5.21018897766077    3.28809480907973   -1.62634276578195
H         3.77204631074107    3.50573023412201   -0.69706842979927
H         5.33847013254883    4.63559065742821   -3.20169840949839
H         2.08462661192421    4.41908633587076   -4.03051414466775
H         1.24016330808526    3.17064628786308   -1.49577716826232
H        -0.91506640241888    3.37543089909125   -2.29249056257079
H        -0.45150947532759    3.54948867810100   -3.96628266193682
H         0.31823871088003    5.35346349528117   -1.96157718554886
H         1.49957533021281    1.53468293329185   -4.09974246152647
H         0.07534218082517    1.38446445038742   -3.08394032414040
H         1.48109931738384   -1.53291662159752   -1.51193633734087
H         0.22565557981246   -0.88540025338938   -2.66212601735606
H        -0.54327081296189   -1.01691806117957   -0.48882530135424
H        -0.30155050966628    0.61582574983001   -0.73029380218976
H         2.21910917891580    1.52038461313991   -0.53391124456670
