35
 energy: -49.719193330046 gnorm: 0.106537683128 xtb: 6.4.1 (79825abcba525fcdf90b791dcacef51065a7a4e7)
C         3.68336796389336   -1.44555896061468   -2.50969198453056
C         3.04008465130823   -0.20580622646829   -3.11358284806338
N         4.02621894927739    0.91282783602518   -3.06798696915059
C         3.77125178943665    1.54639747016271   -1.95965051677004
C         4.34348381647809    2.91845831463087   -1.79486434951482
C         3.57208666569668    3.87504205843720   -2.71204272445382
N         3.91645491378435    5.07703047762649   -3.05304003579903
N         2.44447494691242    3.41057110078554   -3.36837222162630
C         1.18319104114157    2.91890645794438   -2.78071943922419
C         0.04948931597375    3.84528545049103   -3.29177148713198
O        -0.07053318658803    5.15807413509386   -2.74347738858846
C         1.00295774721486    1.43677511295820   -3.17704529994596
C         1.82589630201432    0.42091496431738   -2.33398422826983
C         0.90626363873263   -0.58683451671618   -1.57700781217644
N        -0.19109708157580    0.11781356473085   -0.89599936646127
N         2.61759519462377    1.13782882212337   -1.31476672540588
H         4.72415836001449   -1.48214292986696   -2.85275851588132
H         3.05997561236743   -2.34214118253242   -2.59132759018899
H         3.94696351174579   -1.26996261950561   -1.46468912434348
H         2.72469680427922   -0.43977058097691   -4.13949980569674
H         5.36806537249387    2.85699237577303   -2.17052605826895
H         4.35502814819853    3.25074660712312   -0.75494838445189
H         4.89152033899484    5.26987731246446   -2.79178329796380
H         2.18379819266275    4.08170080036669   -4.09469045335301
H         1.12541583948810    3.05908054177196   -1.69279796162507
H        -0.90227087116878    3.31124922261273   -3.20467700907816
H         0.26389140215709    3.91401049139573   -4.36565600060592
H         0.75090500943068    5.68539190899075   -2.74999763737341
H         1.29966103872144    1.39834959154417   -4.23371972857900
H        -0.06084790150895    1.16365468091966   -3.16489461662553
H         1.49137435172707   -1.11546304796835   -0.82491693571488
H         0.42339765736655   -1.35664685967102   -2.19175174130851
H         0.27228317326615    0.76760522147745   -0.26556611679543
H        -0.63511891420891   -0.56687116636835   -0.28195822977765
H         2.45771470583675    1.26598186935009   -0.31763659644169
