35
 energy: -49.719231707833 gnorm: 0.109631077942 xtb: 6.4.1 (79825abcba525fcdf90b791dcacef51065a7a4e7)
C         3.14016204051717   -1.48370809785674   -2.29945147614988
C         2.57029003986692   -0.26102157787172   -3.00355942772121
N         3.71867838619561    0.55642121904946   -3.49230626277832
C         3.93510772099833    1.43311221971556   -2.55454317260888
C         4.71076917848099    2.71175391728639   -2.57861787298244
C         3.86462552375279    3.96455875744657   -2.83521697725968
N         4.32012045660304    5.16876301752847   -2.98374731578257
N         2.58377030585340    3.74859454389367   -3.31561182985133
C         1.38778350964405    3.30476313190088   -2.57363052855454
C         0.27003255113178    4.30050608885343   -2.97830397122913
O        -0.98980478412870    4.11501810313584   -2.33266471333033
C         1.05593524860041    1.83423160823882   -2.91080304472828
C         1.82927956332323    0.77243456913175   -2.07745000584738
C         0.92354937124135    0.15397995917784   -0.96773687316875
N         0.02282453098670   -0.92244148537438   -1.40877381744436
N         3.04202885263259    1.38433196407967   -1.49919602931838
H         3.13853824664701   -1.29381753562192   -1.21953637917976
H         4.20144926262274   -1.58527154426401   -2.54944423023996
H         2.65683843712098   -2.41671974140435   -2.59649562765653
H         1.94650540238778   -0.52392120126611   -3.86871312642617
H         5.36939708900542    2.71692175815742   -3.45088486545932
H         5.31892896391155    2.83535362998405   -1.68037583056036
H         5.29120876485899    5.21690588445328   -2.65077985851304
H         2.22483072469888    4.62293915749831   -3.70623887802497
H         1.49989464404671    3.40020843633379   -1.48510805654029
H         0.27929797667923    4.23035159366988   -4.07083319070439
H         0.60763702674391    5.24753151901926   -2.53888914491219
H        -1.18251983091092    3.16468435204243   -2.44488741031606
H         1.36517812153881    1.66572201010104   -3.95101627968027
H        -0.01422902197919    1.58867504354208   -2.88121815826669
H         0.26525177374926    0.92242183338135   -0.56328080730237
H         1.55472296840387   -0.21662944746878   -0.15045524842014
H        -0.40162643401080   -1.49936422342516   -0.68669483068129
H         0.47349755167661   -1.52274030523403   -2.10125503337592
H         2.93521877282660    2.17815335867066   -0.87095031917108
