35
 energy: -49.718808450857 gnorm: 0.107293238883 xtb: 6.4.1 (79825abcba525fcdf90b791dcacef51065a7a4e7)
C         3.65544486383559   -1.49882365352640   -2.73007403201889
C         3.01354125830036   -0.17575800457932   -3.12115140722145
N         4.03284484490586    0.91265857153035   -3.07370068122501
C         3.73994936963539    1.66413860934057   -2.05178169551960
C         4.42041056416032    2.97686606063601   -1.82622875407456
C         3.60803828799021    3.94060457385220   -2.69948790805705
N         3.95483500161224    5.17111299424796   -2.91215164645794
N         2.48281318869378    3.40394034665177   -3.30270414945703
C         1.27691898766834    2.91869662671678   -2.60394474096359
C         0.01321643421677    3.71839245185814   -3.01403532223173
O         0.14072569515797    5.14035991842804   -3.00004001051227
C         1.01000329064653    1.43638806784195   -2.94714866603938
C         1.88825869204576    0.40229138700517   -2.18605520505757
C         0.86289093802491   -0.60696065233578   -1.58245940665253
N        -0.41737345658327   -0.03297359812970   -1.13978127936085
N         2.72308013125230    1.17952662682724   -1.24875294992689
H         4.57118119822476   -1.52052793884186   -3.33276265663629
H         2.97116060368339   -2.33947488997661   -2.88564599116860
H         4.01006976415624   -1.50698546845456   -1.69734839724362
H         2.62336911749887   -0.17374678990834   -4.14802827087420
H         5.41898972604016    2.93798025701717   -2.26894163153074
H         4.67495428214468    3.22767273565793   -0.79459049967265
H         4.74761610283704    5.51182687726892   -2.35393149613570
H         2.21534892701379    3.94577251176340   -4.12780195135367
H         1.47950756634417    2.94530234170143   -1.52468114586113
H        -0.82050401534735    3.50623782508502   -2.33688820269130
H        -0.37155719281993    3.49719824163092   -4.01750017271461
H         0.93666543162403    5.43158047711888   -3.48433102010143
H         1.23549946816495    1.39992983420605   -4.02134255275447
H        -0.01079211559599    1.04598367378740   -2.83766791569778
H         1.41086050410510   -1.08869577514395   -0.77307445638431
H         0.59655774186864   -1.37543323669044   -2.31879984049366
H        -0.26521279000986    0.80529953239314   -0.58431586185126
H        -1.02142422237587   -0.63314814329017   -0.57594772808350
H         2.29234952555455    1.82517868042811   -0.59007392372529
