35
 energy: -49.723417824640 gnorm: 0.122084181846 xtb: 6.4.1 (79825abcba525fcdf90b791dcacef51065a7a4e7)
C         3.70121810278149   -1.29282301312125   -2.86068553658386
C         2.91139433928719   -0.02005872338703   -3.12851744716932
N         3.91808918414565    1.07807769677893   -3.04762306053512
C         3.61578263105467    1.68038936533838   -1.93377395908660
C         4.07496574534609    3.07381313041573   -1.64278253256673
C         3.57579903593461    3.89498547104030   -2.83770126245662
N         3.98103802848453    5.04028060355444   -3.28906055619808
N         2.49991141125183    3.29310732647007   -3.46874672037054
C         1.25538752353464    2.92236885170767   -2.76759035099615
C         0.15073044159399    3.93389021070515   -3.16907395667321
O         0.26903497633621    5.27109094744632   -2.68292153889460
C         0.88714375789888    1.43549262262291   -2.96725791821285
C         1.77747981791059    0.45751404897870   -2.14822721431220
C         1.00838138111982   -0.78053418666105   -1.59143216867402
N        -0.04377310171333   -0.26164370345485   -0.70361147030705
N         2.65497206661921    1.08199361892197   -1.13847993915709
H         4.30174630151773   -1.24316047550474   -1.94461938427964
H         4.44830886093166   -1.48147935058452   -3.63876410952712
H         3.00330690445285   -2.13262467299010   -2.86157938228040
H         2.59391667015237   -0.15118267712153   -4.17193915643031
H         5.13560236909782    3.26335321065320   -1.45895750871337
H         3.54922505100744    3.40190542115110   -0.74393539547677
H         4.93329638781433    5.36026988876896   -3.07224628302690
H         2.42398352934697    3.54383086716239   -4.45732056924797
H         1.30694872747580    3.10010301504331   -1.68485682274286
H        -0.81625514927509    3.59172698095119   -2.78633281623759
H         0.12673216194740    3.99943037380473   -4.26408441015948
H         1.19966195618967    5.54721058655780   -2.78567672747229
H         0.89909510643864    1.24340347109562   -4.04847442209651
H        -0.15655968392427    1.23217886548830   -2.69199166882628
H         1.79344944803884   -1.28615162379167   -1.02977167927247
H         0.64660210214330   -1.38183896315211   -2.43477612296668
H         0.36502758946096    0.03934878171523    0.17768419963053
H        -0.81549369902472   -0.91966258768028   -0.58338853841678
H         2.11724937971569    1.62416040170870   -0.46530613053536
