35
 energy: -49.720374323018 gnorm: 0.119005498297 xtb: 6.4.1 (79825abcba525fcdf90b791dcacef51065a7a4e7)
C         3.29418094396471   -1.50700636401856   -2.92786000744586
C         2.85705457815123   -0.08218319513547   -3.23491682650201
N         4.00847747321466    0.86551773270699   -3.19052934374934
C         3.86950134391650    1.55346492287117   -2.09406106230108
C         4.51380628622769    2.88239038782082   -1.85745347055198
C         3.88557623083239    3.87847430473891   -2.83952576825628
N         4.13911890475987    5.06925172356056   -3.28383427905954
N         2.71285508142509    3.42830580568676   -3.42269238422422
C         1.46914100523249    3.10195047674921   -2.69841723148733
C         0.37114385462476    4.04289108891464   -3.25847515078994
O        -0.79372052786863    3.97339229614326   -2.43585321354394
C         0.92755230793943    1.65982842000854   -2.81347026977782
C         1.86224873109765    0.57377698967739   -2.20784120263794
C         0.87232854911682   -0.40318039220059   -1.50079888675241
N         0.02295530814751    0.24490594573566   -0.48933897319084
N         2.80816723189811    1.21563194525373   -1.27359427611582
H         3.60353518807583   -1.64106996786710   -1.88449785824387
H         4.12262642446220   -1.84128312331069   -3.56116815115308
H         2.41855598943716   -2.15208951127684   -3.02530913704211
H         2.39484124091453   -0.01125630980683   -4.22892015310101
H         5.59221504294087    2.92990980393497   -2.02904480605802
H         4.51346439019713    3.19935588309293   -0.81270146998681
H         5.08274281465110    5.37016816573631   -3.00957021454302
H         2.50926104165739    4.06274488106041   -4.19854168865175
H         1.60061115895786    3.43109261365618   -1.65873413230982
H         0.17073020127193    3.63660724801454   -4.25516738501890
H         0.80703055319609    5.04931704726287   -3.29055179967083
H        -1.52726552262966    4.46899153883081   -2.84714434217336
H         0.76005925374946    1.38966789328355   -3.86467413915809
H         0.01219570885269    1.53187350660907   -2.22002716899787
H         1.31429896564218   -1.31159539602502   -1.09228000606756
H         0.10441303634184   -0.66841830338685   -2.23811518228985
H         0.70552904493407    0.45900294809616    0.23360784847429
H        -0.59321595022935   -0.49735894756481   -0.15412129144896
H         2.43391892955578    1.87631197074820   -0.59558721183966
