35
 energy: -49.720992346742 gnorm: 0.115456692342 xtb: 6.4.1 (79825abcba525fcdf90b791dcacef51065a7a4e7)
C         3.54820647107249   -1.38964309311447   -2.88527280714664
C         3.01899988932709    0.01381600529807   -3.14164640159855
N         4.06335760852516    1.05360504121025   -2.90918622645947
C         3.68038503198638    1.68856304928406   -1.83914474471517
C         4.17997963199704    3.06130449403650   -1.51798882599041
C         3.73513214973685    3.86457105694824   -2.74607503788962
N         4.40346676524970    4.73671118111737   -3.43334881619251
N         2.46382649657288    3.55663062268919   -3.20100851111140
C         1.23358042271809    2.92610111043159   -2.68444864560545
C         0.04154863261086    3.76886973977630   -3.20735694670046
O         0.02963357530465    5.16601030331674   -2.91358452969367
C         0.89192626749414    1.45094930068386   -2.99017911557713
C         1.82965042361170    0.47627353561113   -2.22165306461391
C         0.98383580778138   -0.68704971471731   -1.61702652591957
N        -0.18735085582818   -0.14227315165813   -0.91272383105109
N         2.57876252528380    1.18899290950807   -1.16788880059235
H         4.50190058404437   -1.44249169860676   -3.42374495371514
H         2.92500541562304   -2.16240590629247   -3.34744178552288
H         3.62450902944536   -1.62820179357663   -1.82243917170921
H         2.73197313597537    0.03104125975760   -4.20185079964843
H         5.25541744263255    3.11038066910525   -1.32906506700102
H         3.78718760909298    3.46606551988073   -0.58318566905219
H         5.32210173056520    5.13951962414166   -3.20962418607244
H         2.37005014573813    4.04082287575329   -4.09692673149550
H         1.34901415915109    3.08628875810824   -1.60390486290140
H        -0.91403905370120    3.42318633993289   -2.79994713064096
H        -0.03043453724802    3.63784183836406   -4.29435715117630
H         0.88649330552465    5.38104958979858   -2.49835354721283
H         1.06451785281679    1.08816431692747   -4.01226982495797
H        -0.19157105448241    1.36513892246899   -2.83176507757080
H         1.60698590259293   -1.41208697996442   -1.09410369157812
H         0.50890049824171   -1.15984884889336   -2.48569110650776
H         0.22655780166851    0.18844564737708   -0.04456414396307
H        -0.80100097899971   -0.93799681847403   -0.73037125606897
H         2.04119891821375    1.77210902594211   -0.52972388665598
