35
 energy: -49.718790642724 gnorm: 0.117442961372 xtb: 6.4.1 (79825abcba525fcdf90b791dcacef51065a7a4e7)
C         3.75094542507441   -1.36827298311594   -2.59990114488542
C         3.05079574893189   -0.12221769423935   -3.12203244440660
N         4.04995953608420    0.96993754395817   -2.93561712969764
C         3.68620865037113    1.61804691248984   -1.86675420631968
C         4.13007538726534    3.03210859415404   -1.66534220037367
C         3.66894766250913    3.78055213628469   -2.92173213000018
N         4.37499943113983    4.51525279632231   -3.72257582930907
N         2.30483219188253    3.81742940968184   -3.15803465240967
C         1.24272535306405    2.92800278753935   -2.64935369059332
C        -0.04719264257366    3.71658360961070   -2.99414883293720
O        -0.17951631248200    4.95686248010042   -2.29942246776203
C         1.24410985992922    1.53581964483471   -3.31875321292637
C         1.84634517265595    0.50146558192655   -2.32508526440031
C         0.84538813691034   -0.54342004063895   -1.74147957609701
N        -0.01623327645733    0.09665402411754   -0.73529087452823
N         2.58507467901913    1.11004723323422   -1.20104610614768
H         4.72124860244889   -1.19890333923134   -3.08167220733450
H         3.24419728084302   -2.31082128322691   -2.83217490189200
H         4.00535836453034   -1.29955575525202   -1.54023154329274
H         2.77666533831834   -0.29171183407615   -4.17219370510006
H         5.21493956546900    3.16406319829840   -1.64731923356058
H         3.65011333667167    3.43567297800544   -0.77161617430786
H         5.39030152730819    4.53900145628975   -3.56511087817967
H         2.09114459291435    4.40570194566344   -3.96684774820408
H         1.36693684505085    2.92958051524168   -1.55796517206657
H        -0.91101576051765    3.10253311739303   -2.71959608867076
H        -0.03922421711125    3.74534584740287   -4.09097542345007
H         0.61661325544150    5.47578730166669   -2.07634849426665
H         1.68867345042955    1.56719963578513   -4.32247065575326
H         0.22668658552922    1.16428489719709   -3.50106251241656
H         1.38054182270156   -1.38565091708327   -1.30364280607014
H         0.24720861734708   -0.90488807463109   -2.58717623020970
H        -0.59234391420417   -0.65978290736333   -0.37432516718320
H        -0.63042658331624    0.74147779273241   -1.23525484800830
H         1.90971137071520    1.48477973251166   -0.53793719515230
