35
 energy: -49.729737878395 gnorm: 0.111414174589 xtb: 6.4.1 (79825abcba525fcdf90b791dcacef51065a7a4e7)
C         3.59683523299665   -1.43842843921231   -2.69408825937103
C         3.00189494473705   -0.10717292833686   -3.12916214341696
N         4.06694017152188    0.93101706097235   -3.01202020403482
C         3.77648599755773    1.64188307590440   -1.96076651288276
C         4.32931432405712    3.01895757043660   -1.77314551932304
C         3.66873547075851    3.83325971462947   -2.89201539160282
N         4.24028198706498    4.79321796677805   -3.54887118468228
N         2.35778965652751    3.52724418465130   -3.21726205480415
C         1.13221126209099    2.93213370399037   -2.65006890209418
C        -0.00495853276066    3.85935511380891   -3.15180303601192
O        -0.08877105678474    5.09064910081152   -2.43393359633543
C         0.92473403175352    1.43316087164030   -2.96039967943566
C         1.87763320539134    0.47199275797799   -2.19352893013276
C         1.06332520760055   -0.65630113383091   -1.48773010369878
N        -0.20488988701135   -0.04598684688875   -1.05918729577820
N         2.72169413811606    1.16741176022100   -1.20180793801605
H         4.57502969529681   -1.48931899262645   -3.18685943856106
H         2.90214487553122   -2.25140179446326   -2.92993082524166
H         3.86146081397569   -1.41527184926266   -1.63494485744854
H         2.71655870358601   -0.03427091208606   -4.18745461671421
H         5.39321867452390    3.13607475703655   -1.99463648258614
H         4.05457319061095    3.46822452267839   -0.81677188776375
H         5.23111473127126    4.99200369743080   -3.36196943242303
H         2.23031036185903    3.90980965430171   -4.15710155866880
H         1.27015475662409    3.09414717199799   -1.57244043121304
H        -0.96254446812830    3.33779009795226   -3.05368727978022
H         0.19282268592414    4.06708180266003   -4.21088355375483
H         0.73492394366806    5.58194328509419   -2.61565819822213
H         1.06748924639276    1.36739794455640   -4.04730648661783
H        -0.11117394388758    1.21942856719097   -2.66436243853815
H         1.67305614045457   -1.14671503246296   -0.72933326357078
H         0.75385619542105   -1.34340937263361   -2.28509571679293
H        -0.34408642384344    0.35476653916903   -0.13484018198169
H        -0.91386161742513   -0.78095913287375   -1.07222237851680
H         2.23492125745034    1.84908028980498   -0.62333263457497
