35
 energy: -49.719241576001 gnorm: 0.112967122409 xtb: 6.4.1 (79825abcba525fcdf90b791dcacef51065a7a4e7)
C         3.54481968871370   -1.25588006975808   -3.12232994706025
C         2.97071753008987    0.14270492392772   -3.29510481625728
N         4.03254830498157    1.15311894125061   -3.01678681281165
C         3.74063573087695    1.57656968152762   -1.82083324168442
C         4.28207101437763    2.92271421510640   -1.45765605014929
C         3.62273832327164    3.83735914471813   -2.49689962991035
N         4.28381547574432    4.81000746431746   -3.04148850397956
N         2.39857953920085    3.55236335113150   -3.07846861130821
C         1.11983976246185    3.09053126671722   -2.50449766799072
C        -0.01871345696682    3.88702944989886   -3.19291542229894
O        -0.05392375924126    5.30975523925653   -3.30718480546961
C         0.86675119118881    1.60128906288397   -2.82756937252287
C         1.80916770671576    0.48589333271662   -2.29119720033184
C         0.99639563508504   -0.75358936414119   -1.80397987641848
N         0.17009203655626   -0.42784564676052   -0.63111357805892
N         2.62294556391928    1.05176700553026   -1.19707220832826
H         3.93797045668653   -1.54598703221164   -2.14072508953694
H         4.23495469442838   -1.24234390504635   -3.97243142914156
H         2.78692178498912   -1.95107829228578   -3.48926027468514
H         2.62846312565286    0.19405544472406   -4.33766870141619
H         5.36220661796842    2.90235491924245   -1.62366724091913
H         4.14507268900834    3.01855563625668   -0.37875852860341
H         5.23744768729187    4.88055764349858   -2.66491733872473
H         2.27184042136452    4.30436566882031   -3.75989014716789
H         1.03104033506882    3.18753892915423   -1.41396383623714
H        -0.96838060219806    3.66276824754630   -2.69646118377832
H        -0.11622689477613    3.50721442585522   -4.21768417670944
H         0.70946341543420    5.57904512482093   -3.85270312455157
H         0.85073927002487    1.50568653232744   -3.92149531730570
H        -0.09911426233935    1.38296738904794   -2.35231740285611
H         1.67736257284725   -1.56072449907197   -1.53516720751835
H         0.40920698201495   -1.13925817840756   -2.64668370834079
H         0.74973681995925   -0.17736449960984    0.16617410874958
H        -0.36871620414471   -1.22478222330108   -0.28822459586616
H         2.19634921044237    1.54680131690548   -0.41655311568660
