35
 energy: -49.725597169095 gnorm: 0.109067549426 xtb: 6.4.1 (79825abcba525fcdf90b791dcacef51065a7a4e7)
C         3.72693199724918   -1.38743122698821   -2.71867515329931
C         3.09179927248070   -0.08013253529808   -3.16929800490609
N         4.09125627733536    1.00813685866577   -2.96280974547740
C         3.69101049732294    1.63794052414886   -1.89604873191512
C         4.08745615210179    3.05033507513274   -1.60428275778745
C         3.54695799345106    3.92393621587731   -2.74270489295748
N         4.21677056908592    4.83449433615505   -3.37664481164436
N         2.37246883762770    3.52475927346807   -3.35853183609061
C         1.18147043899100    2.98936757809274   -2.67093783223787
C        -0.03190894660764    3.86471247345763   -3.07850817866581
O         0.26742016210419    5.22571132239605   -2.76781513380807
C         0.96193277117662    1.49581279189038   -2.99860965071482
C         1.86544405167495    0.42467935144363   -2.32311564681647
C         0.88502401560399   -0.63133110111188   -1.72485567564736
N        -0.15843284071808   -0.02292524374680   -0.88489016515984
N         2.64166247814120    1.03523017464235   -1.22572348500540
H         4.62546561347137   -1.62089849849121   -3.30212013332334
H         3.21409677737053   -2.32951171283788   -2.93918923943757
H         3.86920234104292   -1.49663212940046   -1.64155772087997
H         2.68946038704749   -0.17811883402157   -4.18676373296284
H         5.16802945592383    3.15381205185823   -1.73203638083121
H         3.71747829794989    3.34924834215902   -0.62156141662754
H         5.19153709256829    4.93203343936310   -3.06597793238428
H         2.15611291871926    3.88742081462830   -4.28996745379148
H         1.32492462729645    3.06788711477461   -1.58474472969776
H        -0.93009715308291    3.57259465127019   -2.52483615597996
H        -0.27824869797933    3.75844698949540   -4.14243660388605
H         1.14872381309265    5.42128966741368   -3.13919128474222
H         0.98182012219158    1.33940789414003   -4.08544551368689
H        -0.06009028437654    1.26721456955164   -2.66749548480057
H         1.45033561438025   -1.25858667481408   -1.03607661453738
H         0.41634941349504   -1.29141769654111   -2.46533558448642
H         0.29312703361003    0.13495398603983    0.01264221143259
H        -0.93670967180895   -0.68362778849428   -0.85746017704184
H         2.23833233909421    1.42892626780930   -0.37803153317852
