35
 energy: -49.719701648105 gnorm: 0.110441409074 xtb: 6.4.1 (79825abcba525fcdf90b791dcacef51065a7a4e7)
C         3.80136518304958   -1.39446908729466   -2.74752848492471
C         3.07079445993004   -0.14578851385156   -3.21927810325142
N         4.07588952326301    0.94423941761976   -3.05343165866350
C         3.68376666935158    1.62773540928305   -2.01713955078174
C         4.27758731643163    2.97303399430203   -1.74381976244205
C         3.61265249231879    3.91953286662030   -2.75045959002598
N         4.29817101223936    4.89448563049527   -3.25955316453176
N         2.34577394995814    3.68780316618678   -3.25970404894980
C         1.16939957470557    2.95212808937525   -2.75687957017052
C        -0.11446384012783    3.80140053459061   -2.94413035060810
O        -0.01365939831154    4.97007829751290   -2.13020363112306
C         1.14440492557460    1.47610198930161   -3.21184522248799
C         1.87317663066900    0.39970002150874   -2.35732645922977
C         0.77355338456569   -0.54876907702963   -1.78677263190856
N         0.01514337228969    0.09333594667153   -0.70186831620714
N         2.63424927580435    1.08761361496310   -1.29567666464506
H         4.10986590007502   -1.35516160335615   -1.69607239336090
H         4.71654589830491   -1.38304600804959   -3.34874047618295
H         3.31181459531358   -2.33803416501510   -2.99727402535537
H         2.71274821043210   -0.23789323271547   -4.25370259762699
H         5.36226378734165    3.02157234285844   -1.86947054322245
H         4.08469880935759    3.28483708276215   -0.71544879047416
H         5.26912253058149    5.02931706261674   -2.95089284431591
H         2.18344715257958    4.15459254822913   -4.15506055254542
H         1.19513410282740    2.92843397560914   -1.65900152189409
H        -1.00586835210486    3.22716596721827   -2.67158632467448
H        -0.30632477276038    3.99825435005156   -4.00637198042977
H         0.29517896014886    5.67588124725061   -2.72964364117319
H         1.27938403200960    1.44991633118810   -4.30141631179789
H         0.07681073182232    1.21956930698760   -3.24114539918621
H         1.21291149355981   -1.51199090658717   -1.52868054665383
H         0.05571750071765   -0.73841956976099   -2.59450096012241
H         0.36192383123466   -0.14145947337937    0.22496012711878
H        -0.93772322815455   -0.27403059786673   -0.71093203218440
H         1.94910488584786    1.61365844019860   -0.75706037816100
