35
 energy: -49.719293576138 gnorm: 0.117604503835 xtb: 6.4.1 (79825abcba525fcdf90b791dcacef51065a7a4e7)
C         3.35818919452609   -1.55628659246992   -2.56712808986189
C         2.75783734647472   -0.20931289090072   -2.94225994076925
N         3.76007832980777    0.81136461219645   -3.36606699564323
C         3.85806380961913    1.66246067076232   -2.38583093147463
C         4.51038735255019    3.00755100510426   -2.33724178077453
C         3.54275572575085    3.90213211961610   -3.12129272983537
N         3.90120368833189    5.06034676948533   -3.57922145229298
N         2.34335460086844    3.36538053828860   -3.55872223463744
C         1.29955035698182    3.09205664362316   -2.55190856758300
C         0.03588731818732    3.85242527768812   -3.03110279742317
O         0.05400594229321    5.24824834780142   -2.73144360577857
C         0.91976490855746    1.60035758732451   -2.42202987726415
C         1.93900273686873    0.57341563670201   -1.85063147977281
C         1.19536112642700   -0.22629002844581   -0.73628659070893
N         0.01247393400303   -0.79265160019797   -1.40300574790715
N         3.07910114043985    1.32744520958776   -1.29280358553517
H         4.09659195985412   -1.54680812991653   -1.75660407375727
H         3.68369515698995   -2.09562498076859   -3.46284123592573
H         2.48816258638601   -2.15410526252074   -2.28781786410821
H         2.05914942206802   -0.30484506052656   -3.78453257884654
H         5.47135092776346    3.24073206321825   -2.80290553875140
H         4.57013062555148    3.40240700085779   -1.32112491413857
H         4.87128289404171    5.37103610594290   -3.44278085540263
H         2.03276674993398    4.03476345097484   -4.26679520043660
H         1.49742022476634    3.43112451693588   -1.52602339576516
H        -0.80882687504250    3.51533568867428   -2.42163077984007
H        -0.20912280974674    3.71067710823351   -4.09119563369020
H         0.91865124364023    5.68967583234360   -2.83341192427059
H         0.45920916362505    1.24596903248313   -3.35389218233159
H         0.06981699258814    1.53069271471033   -1.72981588059065
H         0.82964168883763    0.53020583566542   -0.04245183998088
H         1.84006489394616   -0.99149222850961   -0.28628287905003
H         0.29862565072097   -1.61011566587495   -1.93617198365396
H        -0.64601857120906   -1.09881069272304   -0.68491848567199
H         2.71550084627733    1.97042595924498   -0.59235796937057
