35
 energy: -49.722353449564 gnorm: 0.110246014679 xtb: 6.4.1 (79825abcba525fcdf90b791dcacef51065a7a4e7)
C         3.54359719844202   -1.44593141371515   -2.40324215106772
C         2.97621503760013   -0.14068370575884   -2.94165680732253
N         4.06770019875361    0.86613938623995   -3.08605002436145
C         3.79635188923374    1.75154240265170   -2.17103089311715
C         4.37517511291890    3.12950491765511   -2.11325619155347
C         3.72123446038144    3.77899280278456   -3.33875580265296
N         4.39672652233237    4.67308098987157   -3.98987913916764
N         2.44780276631061    3.50129507878291   -3.80701377480609
C         1.35276736195363    2.99680766403259   -2.95595744692956
C         0.13982254292258    3.94835251721822   -3.12316712614796
O        -0.70569532363933    3.79362458163394   -1.98316503836555
C         0.99030466666938    1.49603260656310   -3.00661838775514
C         1.85132622306021    0.56898414556344   -2.10153568238758
C         1.04971985043370   -0.35164483206423   -1.12985360829572
N         0.09193800769613    0.44753137176568   -0.34980661848037
N         2.76511893152061    1.41771156755924   -1.31147138410375
H         3.56099134463848   -1.44304839164437   -1.30689968049311
H         4.59750601962374   -1.57015391831461   -2.67340329680118
H         2.86631815511372   -2.22734543564051   -2.75400259839609
H         2.65280285321230   -0.42550494837729   -3.95210019482130
H         5.45656554497613    3.22416648300654   -2.24093178344284
H         4.17573208308363    3.69327675303166   -1.19982431881497
H         5.40187588385589    4.74367566454613   -3.78766955758139
H         2.17865347898696    4.05223766815632   -4.62550415976248
H         1.63823451934023    3.17240361559786   -1.90990082565240
H        -0.39862353600323    3.76047422333130   -4.05772860393159
H         0.55354497977570    4.96079584367884   -3.21098275124039
H        -1.51118085202945    4.31947479707771   -2.14912248797328
H         1.10845965662290    1.24998792667876   -4.07037194074771
H        -0.05450255439990    1.24907298827485   -2.77464063765902
H         1.71598911690551   -0.79714126270032   -0.39157076638752
H         0.54582452807983   -1.19344326377482   -1.62091939165993
H        -0.58133897089145    0.90142905346329   -0.96223746527859
H        -0.40753276666034   -0.02395856853083    0.40598519391935
H         2.28041327618947    1.97223474638252   -0.60874956695075
