35
 energy: -49.723291398586 gnorm: 0.102077118050 xtb: 6.4.1 (79825abcba525fcdf90b791dcacef51065a7a4e7)
C         3.65166365418106   -1.56479314311577   -2.69857650918442
C         3.12569623121257   -0.20507553997218   -3.13447870943295
N         4.16273152086014    0.84201665464691   -2.90201855860892
C         3.75673762883739    1.64301299728633   -1.95946765907496
C         4.24098707385900    3.03459497142492   -1.70225769896587
C         3.53864244779156    3.98292228506919   -2.68139481211258
N         3.93891151060734    5.17734406361361   -2.98600288828957
N         2.37082935628904    3.51641909548276   -3.26156477647292
C         1.18451008052387    2.84847064767491   -2.69200492920275
C         0.00164805922064    3.67496838348071   -3.25978196951541
O         0.17330675625884    5.03688048010280   -2.86713111632728
C         1.08470185546706    1.37720559806666   -3.15210166255946
C         1.91188881577198    0.36331887535898   -2.31082457972386
C         0.86431678279477   -0.54936531428787   -1.60096759101504
N        -0.04462049066360    0.33168153920180   -0.85124000917847
N         2.65285721286394    1.13819497305309   -1.29589118213016
H         4.53376257593258   -1.86784848115352   -3.27506296106030
H         2.83301538879333   -2.28905383582795   -2.76493569995017
H         3.99743156420003   -1.33434223223077   -1.68878217473559
H         2.89505297042763   -0.23323711671647   -4.20812903229820
H         5.31562481905667    3.05679479121179   -1.90057060422384
H         3.93660127298733    3.32020334641358   -0.69342117607466
H         4.87478875620364    5.31259130730635   -2.58346154610963
H         2.19643343619838    4.23393644302087   -3.96913846419776
H         1.13919551224322    3.01685068861910   -1.60749829724454
H        -0.96864679858892    3.36130668741436   -2.86132014872773
H        -0.10449883345513    3.44379405767892   -4.32712005941311
H         1.05344558656207    5.28165081347923   -3.21109388317416
H         1.25600375345429    1.27256265492615   -4.23181260429652
H         0.02612421493959    1.08927244737493   -3.09794675196247
H         1.32319085008157   -1.32582089379990   -0.98941655072300
H         0.26290872373897   -1.06900998593831   -2.35724694721170
H         0.31460442079806    0.35057987983993    0.10007321737633
H        -0.97091059639251   -0.09258956493902   -0.92177905300664
H         1.96788280820064    1.53990481048070   -0.65895104690902
