35
 energy: -49.716462098439 gnorm: 0.124829013008 xtb: 6.4.1 (79825abcba525fcdf90b791dcacef51065a7a4e7)
C         3.76471982478858   -1.36687535192490   -2.72927315170112
C         3.01496242503543   -0.08589973622871   -3.06460841101691
N         3.98554857016294    1.03994844037669   -2.93689615733439
C         3.66932480770196    1.70933850763246   -1.86603300938725
C         4.21661754739761    3.08573896608620   -1.65831358063247
C         3.63792208295953    3.81126522190387   -2.87898773865686
N         4.29250794488315    4.57261438516491   -3.69844464210413
N         2.34717762997917    3.59387256881383   -3.33145767660841
C         1.23778286883588    2.96798699502976   -2.58619430063305
C        -0.03986835455611    3.76610743798495   -2.95394821743679
O         0.01792043064879    5.10089494068567   -2.45051129388393
C         1.08800957869858    1.49069700486314   -3.01216822792961
C         1.87778827525572    0.47744782826978   -2.13494112001155
C         0.91473914855007   -0.66113668352374   -1.67618387143895
N        -0.39228231937576   -0.13036209101019   -1.25848161582768
N         2.62815219533981    1.21622344287178   -1.10018439649041
H         4.66027057835549   -1.42000632446537   -3.35970445227222
H         3.15401801325647   -2.25162575198102   -2.93760486154084
H         4.06886520476591   -1.48377927221187   -1.68707512870880
H         2.86623542673263   -0.07725782329704   -4.15296497317854
H         5.30268427851437    3.19860504392465   -1.60945221910429
H         3.84996389238401    3.50920146764580   -0.72118039789833
H         5.29388693547462    4.57547410535916   -3.46729640446309
H         2.17475474039917    4.01751496220901   -4.24617242107878
H         1.35160553509492    3.09244863761486   -1.50078489269029
H        -0.91992937650195    3.22760045359738   -2.58771001714198
H        -0.18854856502307    3.83226077028829   -4.03904602845829
H         0.78334406755818    5.56815531116073   -2.83607797113251
H         1.41857821962171    1.40065107497679   -4.05556954606874
H         0.10188023670246    1.02855648073931   -2.86933989278316
H         1.45890067475767   -1.31555300900095   -0.99569077518551
H         0.60501311401695   -1.29798330677254   -2.51414381009983
H        -0.33551708054347    0.85252123550898   -1.00330597295997
H        -0.73612287688745   -0.54894193129775   -0.39271047428094
H         2.29896177820850    1.63179610308483   -0.23116973222778
