35
 energy: -49.724168752662 gnorm: 0.122046540000 xtb: 6.4.1 (79825abcba525fcdf90b791dcacef51065a7a4e7)
C         3.63511507988654   -1.46208819062877   -2.54402427789217
C         3.08612315482392   -0.15444362343451   -3.09552949282870
N         4.07852611772879    0.94254590063221   -2.90153888426582
C         3.73074435342928    1.57295231059408   -1.81688962028430
C         4.16829171058889    2.98833802114369   -1.61100002555592
C         3.60941904282511    3.85338356711211   -2.74708087884230
N         4.13787942410694    4.86503426133880   -3.36103306568219
N         2.38411624129946    3.46975902133795   -3.26619076403551
C         1.09428607748427    2.94475662970357   -2.77770577378401
C         0.01471596594468    3.93182124582891   -3.29235479904396
O         0.10596192926006    5.29912216790782   -2.89159514158428
C         0.93970039557855    1.44110710725748   -3.09615968682542
C         1.86684277863237    0.46432912540303   -2.31753047253616
C         0.99889516123050   -0.67222057126006   -1.69365684230189
N        -0.08868234580560   -0.07690941331903   -0.90164561816232
N         2.59032451370341    1.09565293128824   -1.19612003107134
H         4.52851693838505   -1.70031104924752   -3.13339739686220
H         2.80908283026139   -2.16051358638910   -2.71436151776864
H         3.81450927890800   -1.34065758970185   -1.47378131488219
H         2.84437745455284   -0.20283518955572   -4.16601148599229
H         5.24978684033565    2.96941196357390   -1.76808990558220
H         3.91303269736528    3.46954846727422   -0.66482174598129
H         5.04761967335021    5.15026984365647   -2.97735233450729
H         2.27612449275513    3.96157682804279   -4.15633604607038
H         1.09247067986013    3.05979779190804   -1.68531293521852
H        -0.94920707857240    3.55124911287662   -2.93930408807067
H        -0.02619599649580    3.98384580167278   -4.38758946620240
H         1.01319554597724    5.64692150379968   -2.79762683387184
H         1.13198505748325    1.29405302282251   -4.16736083867822
H        -0.09203339175750    1.22260528285230   -2.78922774574199
H         1.67686787792064   -1.31135764172193   -1.12859032559451
H         0.43502955800763   -1.16151782734474   -2.49759993302637
H         0.42872989003591    0.33884314445832   -0.13104135434146
H        -0.58914443322021   -0.87066028272215   -0.49854222549985
H         2.12206213629466    1.69420531851071   -0.51883215501172
