35
 energy: -49.724548588579 gnorm: 0.113947776382 xtb: 6.4.1 (79825abcba525fcdf90b791dcacef51065a7a4e7)
C         3.62562623725236   -1.40325996044485   -2.79115582500581
C         2.99794635656896   -0.08435230294527   -3.21775283649417
N         4.02783482042791    0.96799272799424   -2.97737459925061
C         3.71526423229970    1.62423518892903   -1.89734039615295
C         4.18109355969670    3.02744850314807   -1.67117594847349
C         3.66680554376208    3.88101181350391   -2.83661994025557
N         4.16840710280661    4.95067613683624   -3.36940406395287
N         2.45349827859170    3.54217600706004   -3.41202034588964
C         1.26883799851787    2.97218009227293   -2.74150438701367
C         0.02394007194819    3.79277416894089   -3.16751652949149
O        -0.03438086330155    5.08372709321497   -2.56048673636231
C         1.05397945375073    1.46922037261138   -3.02649458688200
C         1.86723923654561    0.40268745862539   -2.23841606342687
C         0.99255053204695   -0.70372908792493   -1.57128889139102
N         0.04728823370877   -0.00252075696906   -0.68851596138944
N         2.67297411330492    1.05540707324732   -1.18755671576215
H         4.37609146215062   -1.61445787027480   -3.56217792220553
H         2.95086853969805   -2.24931734901859   -2.62373114403291
H         4.07098751929110   -1.30594406522443   -1.79892066466124
H         2.61796500075468   -0.01434086610977   -4.24606552857251
H         5.23995156630010    3.27256110786334   -1.55538880196996
H         3.68502318242089    3.39238440961084   -0.76967166601084
H         5.03867021731184    5.16802165423560   -2.86780601023381
H         2.34092708917115    3.77081088643162   -4.40245429558575
H         1.28027220473206    3.17939026834046   -1.66285101974214
H        -0.84957034551689    3.23937760861096   -2.80785086114256
H         0.01961279626814    3.85591625792422   -4.26292224480915
H         0.74518764359850    5.60638126027141   -2.82876425045894
H         1.05179275261608    1.27746384131311   -4.10783396750264
H         0.01528467596560    1.25264140465111   -2.74253757019666
H         1.59532772628334   -1.36458963309446   -0.94890126760048
H         0.49000784108645   -1.35001079653989   -2.30166653666110
H        -0.48211040682483   -0.57544409178442   -0.03591158666025
H        -0.65051831093905    0.38875708412610   -1.32330944370409
H         2.06638803468307    1.55325711145233   -0.53913389358471
