35
 energy: -49.722194349685 gnorm: 0.125435123584 xtb: 6.4.1 (79825abcba525fcdf90b791dcacef51065a7a4e7)
C         3.56816597616817   -1.34908303463724   -3.09202522274504
C         2.92882135807660    0.03169715946375   -3.07902796637320
N         3.96505920124298    1.08741856048849   -2.88526148263449
C         3.62818072590314    1.70135709473659   -1.78780041308291
C         4.11528657994112    3.07230350779616   -1.44082955389939
C         3.65629277668816    3.88481848789915   -2.65757369886408
N         4.34413051085386    4.84564135430539   -3.18987389129998
N         2.57585038993853    3.40742381497980   -3.38058714167847
C         1.32624819567644    3.03225069722231   -2.69091587369361
C         0.15751218377287    3.76979989559909   -3.39427149722663
O         0.02782874188839    5.19163959399529   -3.39440390892144
C         0.93224699188196    1.53865783549134   -2.67625597848440
C         1.83297783164265    0.44749822951944   -2.02972189983825
C         0.94813061440230   -0.75839794730377   -1.58569899895714
N        -0.21998774047793   -0.24723450437999   -0.85172801300440
N         2.71811848544313    1.02244994066464   -0.99748478039374
H         4.41127272756229   -1.36915337964910   -3.79277186898395
H         2.83634024924502   -2.14099816431312   -3.28292730241261
H         4.06555743107989   -1.53213935546240   -2.13733166783880
H         2.62324096237488    0.15145310319760   -4.12735689705813
H         5.20717506418819    3.11314085613683   -1.46874008660221
H         3.65654359242493    3.50718747490454   -0.55065832580998
H         5.24204862286932    5.10776696174150   -2.76416179022248
H         2.49118688098634    3.82627388002931   -4.30972776743558
H         1.38820488944017    3.39443085862005   -1.65576043796017
H        -0.74214654963521    3.47631516705872   -2.84371861988973
H         0.11852712203804    3.34845100813181   -4.40662746592080
H         0.92686372964417    5.55739485912584   -3.49845406657757
H         0.77860573453383    1.18969520083562   -3.70615385911847
H         0.02226855691669    1.38913920828106   -2.07959167208678
H         1.51900394268809   -1.47945804261340   -1.00121689678617
H         0.60259857701122   -1.27293698357512   -2.49098231901279
H        -0.11400041703710    0.22408440909578    0.04327014387069
H        -0.99034399024185   -0.91765770345428   -0.84283618671834
H         2.16333538656550    1.69290302040308   -0.46931636236079
