35
 energy: -49.716467358062 gnorm: 0.117782177572 xtb: 6.4.1 (79825abcba525fcdf90b791dcacef51065a7a4e7)
C         3.58739530085125   -1.28919205691859   -3.03198590210300
C         2.91672955628712    0.04590532775985   -3.32044187850998
N         3.95218507893604    1.09026176626776   -3.06937720750685
C         3.66446894952628    1.66741527618590   -1.93847418030780
C         4.12793416957417    3.03828026359330   -1.56020960052434
C         3.63071459705731    3.89918649669979   -2.72765782110423
N         4.14916115370214    5.01160282452760   -3.14405653323581
N         2.52717287710755    3.38262757550264   -3.38596808870834
C         1.34964438418503    2.97275545745886   -2.59645021850210
C         0.11776585747078    3.87603487399717   -2.86327116854944
O         0.33671334411783    5.28644552875504   -2.82791962921126
C         0.83401343137717    1.53366575463322   -2.81874972405152
C         1.76759974997454    0.39986943520035   -2.30603719350625
C         1.02825290597791   -0.80991452018099   -1.65481869003725
N        -0.22038683853413   -0.44277231129265   -0.96881042593320
N         2.60732964110017    1.05869744804942   -1.28605862221067
H         3.81341048151832   -1.43781079906739   -1.96939130297636
H         4.54336166779391   -1.35151047976240   -3.56244494093703
H         2.96004922963765   -2.14970819731236   -3.27343265999444
H         2.55074135716756    0.10940765065128   -4.35423803510904
H         5.22078226146366    3.02774954072796   -1.57567862855998
H         3.83655991792741    3.42875056881949   -0.58316918694582
H         5.00259110466560    5.14306668446499   -2.58676653406122
H         2.34770660573788    3.82742809476427   -4.28921221188001
H         1.51533790367269    3.06026576020621   -1.51411594066435
H        -0.59889460209639    3.68133023028098   -2.05883628502786
H        -0.40210225978471    3.48896479398086   -3.74861472877764
H         0.77970046671858    5.58136484274794   -3.64624246671954
H         0.64154919442995    1.37423163537023   -3.88814603658238
H        -0.11441651634768    1.49688425612230   -2.26598158472446
H         1.79578367528941   -1.23858705707814   -1.01094003024529
H         0.95908683243501   -1.45489174895803   -2.53963569631542
H        -0.19026477450533    0.52826033216659   -0.66783733557239
H        -0.23321125293753   -1.10501166763694   -0.19146259229620
H         2.14018927727191    1.65235172342688   -0.60370390534745
