35
 energy: -49.724111748628 gnorm: 0.110709420268 xtb: 6.4.1 (79825abcba525fcdf90b791dcacef51065a7a4e7)
C         3.45859320885840   -1.43311054525055   -3.13052575305557
C         2.98878132079135    0.01419172683178   -3.13932020949731
N         4.07691585819104    1.02375067786064   -2.98886776069247
C         3.76584951317930    1.63586543068436   -1.88280190918865
C         4.27052676327888    3.00128484929061   -1.53916604285232
C         3.66139921771200    3.89729832833858   -2.62426772201199
N         4.02489911959480    5.10637090720429   -2.91693837694348
N         2.56303990387519    3.40559915841544   -3.30972272972034
C         1.24636456024136    2.97156865085105   -2.80386652081302
C         0.12931890131285    3.67483298297838   -3.61766015759603
O        -0.03015583119467    5.03775166611569   -3.22336784968491
C         0.92720275314600    1.46015440433504   -2.80971656333020
C         1.87973554949875    0.44780090612259   -2.11130885398853
C         0.96478661174578   -0.65020212605698   -1.48556583991129
N        -0.03687122252027   -0.05674610665280   -0.58612517802598
N         2.75832534553015    1.08561282886776   -1.11089251987852
H         4.38459046703399   -1.59335088275006   -3.69544148586139
H         2.62401410588424   -1.99907978342552   -3.55749018027524
H         3.64942913243418   -1.80530917418060   -2.12186451667658
H         2.48760953744005    0.25286325032250   -4.08725331173883
H         5.35525765111983    3.07631590704129   -1.65050506136791
H         3.95855437105183    3.32542714178843   -0.54439019167497
H         4.91450246147598    5.39848848897220   -2.49329846786248
H         2.40467839463300    3.80107399152190   -4.23946833053816
H         1.15782022262595    3.18825204839023   -1.73066193533199
H        -0.82779506802233    3.20021581722969   -3.37828809296035
H         0.32715997965064    3.52775480289279   -4.68684032862541
H         0.77952479266464    5.55184531320190   -3.40500558861850
H         0.60589601881445    1.14427344064083   -3.81124109659727
H         0.05104651405154    1.45687552502259   -2.14732364440898
H         1.58886995532577   -1.36690684696363   -0.95237011836644
H         0.37724111575133   -0.92215725531078   -2.37129232793627
H         0.46360244051380    0.26019700156071    0.24059709515966
H        -0.76056456839654   -0.72481609265103   -0.31604089780981
H         2.28916705409983    1.59219181742471   -0.36288068840929
