35
 energy: -49.723197365741 gnorm: 0.105234102511 xtb: 6.4.1 (79825abcba525fcdf90b791dcacef51065a7a4e7)
C         3.48070216271934   -1.36190976815395   -2.42582211526897
C         2.92890561506342   -0.10275829049251   -3.07815835670542
N         3.99260395018966    0.94321685173158   -3.05908342425599
C         3.73483813451838    1.68888315724671   -2.02353190239351
C         4.40792608097270    3.02357541823186   -2.07553268214679
C         3.74608393025410    3.78137905135026   -3.23269333276121
N         4.28246806621219    4.83341770576770   -3.76668912939112
N         2.52688718538640    3.35803088267760   -3.73503329410473
C         1.34665361384095    3.00632072218200   -2.92185704031783
C         0.11299033428931    3.85542334978296   -3.32401552265869
O        -0.61939343492347    4.28760130660473   -2.17715800062512
C         0.94038351444103    1.51607243141549   -2.94125126755769
C         1.83819492751356    0.53144563950224   -2.13850821993700
C         1.02698198365328   -0.50647258934738   -1.30247242335386
N         0.45138825943737    0.28591593391997   -0.20460436629851
N         2.69417959750542    1.28922456775279   -1.20436782803064
H         3.83985880091057   -1.15688247193286   -1.41031830030901
H         4.35312734484025   -1.65535603425213   -3.01903849531693
H         2.77676470552336   -2.19532025135261   -2.37842288149734
H         2.56422695203225   -0.24553971993346   -4.10448060035725
H         5.47763407894008    2.97380479819919   -2.29442720783863
H         4.37206109569289    3.67144628713398   -1.19749451822868
H         5.28147011896823    4.99611286194350   -3.58858034159869
H         2.14350575063304    3.94569175778829   -4.47906216780894
H         1.46729234016165    3.23986864665580   -1.85533862212738
H        -0.52612946727575    3.30754986027673   -4.02400702376019
H         0.43909302395588    4.74756649884829   -3.87324858810386
H        -1.49113651550490    4.65068412918139   -2.42434643875479
H         0.95461074567019    1.17531672042293   -3.98516377926470
H        -0.12610802726439    1.40314825800723   -2.70404086761067
H         1.62655656609082   -1.28376052170473   -0.82942153690062
H         0.31482721515949   -0.97140857960184   -1.99554588014928
H        -0.31719196452687    0.91407295642197   -0.42618895638935
H         0.21069429238639   -0.22834911223812    0.64427310403878
H         2.14842719327472    1.94111557704218   -0.64450543326064
