35
 energy: -49.712196292158 gnorm: 0.112039174115 xtb: 6.4.1 (79825abcba525fcdf90b791dcacef51065a7a4e7)
C         3.23863000000000   -1.34534000000000   -3.34144000000000
C         2.95229000000000    0.12837000000000   -3.09310000000000
N         4.21558000000000    0.78404000000000   -2.64580000000000
C         3.80361000000000    1.57096000000000   -1.69403000000000
C         4.35136000000000    2.96233000000000   -1.65918000000000
C         3.51714000000000    3.87196000000000   -2.56911000000000
N         3.73851000000000    5.14778000000000   -2.62318000000000
N         2.52109000000000    3.37653000000000   -3.39400000000000
C         1.20601000000000    3.07762000000000   -2.79473000000000
C         0.11557000000000    3.75360000000000   -3.66572000000000
O         0.41545000000000    5.12347000000000   -3.93400000000000
C         0.83921000000000    1.58296000000000   -2.66161000000000
C         1.83802000000000    0.54989000000000   -2.06571000000000
C         1.06089000000000   -0.68060000000000   -1.50334000000000
N         0.02653000000000   -0.36784000000000   -0.50495000000000
N         2.63795000000000    1.23326000000000   -1.03001000000000
H         4.20920000000000   -1.47108000000000   -3.83587000000000
H         2.47535000000000   -1.76824000000000   -4.00303000000000
H         3.27720000000000   -1.93697000000000   -2.42447000000000
H         2.72445000000000    0.57017000000000   -4.07270000000000
H         5.36784000000000    2.95596000000000   -2.06092000000000
H         4.37773000000000    3.35960000000000   -0.64259000000000
H         4.50631000000000    5.39107000000000   -1.98483000000000
H         2.37281000000000    4.09640000000000   -4.10513000000000
H         1.16675000000000    3.55127000000000   -1.80444000000000
H        -0.86235000000000    3.70366000000000   -3.17602000000000
H         0.03130000000000    3.25355000000000   -4.63874000000000
H         0.85660000000000    5.49967000000000   -3.14868000000000
H         0.48196000000000    1.18997000000000   -3.62286000000000
H        -0.05183000000000    1.60089000000000   -2.01962000000000
H         1.74686000000000   -1.38585000000000   -1.03482000000000
H         0.56937000000000   -1.19235000000000   -2.34012000000000
H         0.45496000000000    0.06175000000000    0.31132000000000
H        -0.40871000000000   -1.23356000000000   -0.18232000000000
H         2.85545000000000    0.57596000000000   -0.28375000000000
