35
 energy: -49.717147220123 gnorm: 0.124255012110 xtb: 6.4.1 (79825abcba525fcdf90b791dcacef51065a7a4e7)
C         3.44657377424153   -1.35490922442728   -3.06250183277912
C         3.04998595470579    0.11210618370987   -3.14040120755091
N         4.18534450026913    1.02209208066659   -2.81060033371995
C         3.73711191186379    1.72616451672154   -1.81150176406577
C         4.13471921661001    3.15061111682789   -1.58786092709235
C         3.54598404031252    3.85886540225750   -2.81386620939746
N         4.11967228102344    4.71171605241577   -3.60327889634310
N         2.37653851919873    3.40208398982619   -3.39846673274532
C         1.17550117824786    2.96363351308274   -2.66146099763257
C        -0.04378336501861    3.82080719054006   -3.08951507761421
O         0.33009555836941    5.19390159766887   -3.20472032453735
C         0.86645585295890    1.45597896578650   -2.79465352864307
C         1.87585993418532    0.46114442813141   -2.15328056681748
C         1.17177927477581   -0.73432483734427   -1.43954379584588
N        -0.09841560048112   -0.24196037927721   -0.88395025424754
N         2.70807848577867    1.11089046360071   -1.12138944881585
H         4.35300157082662   -1.50389241520290   -3.66122575337751
H         2.64133996001875   -2.06306079443490   -3.28445211963093
H         3.67515969997112   -1.58452789068141   -2.01973080935263
H         2.77935612685764    0.31175237428442   -4.18616183784681
H         5.22656279565276    3.19885512991536   -1.60260025899209
H         3.71018257849288    3.65954215158229   -0.72025973040789
H         5.10085552133190    4.82725514200098   -3.32021046398331
H         2.24328701084262    3.88176672554108   -4.29180547241912
H         1.36070492514845    3.25396260302483   -1.61840372810104
H        -0.92921713058326    3.64263542767133   -2.47073446117423
H        -0.34070394012630    3.56808119094222   -4.11513053468710
H         0.40281121451886    5.67096467308124   -2.35619777711647
H         1.05353166278905    1.31330666393540   -3.86736852703325
H        -0.15681537881770    1.11777704318997   -2.58261511942097
H         1.95163587952232   -1.11071000800510   -0.77802944377012
H         0.97275358093657   -1.47850748688353   -2.22073625436038
H         0.03536118977466    0.23763508929491    0.00289161029140
H        -0.56065183511745   -1.09014583814767   -0.55241718423788
H         2.20147835707372    1.52464475013394   -0.34137844692578
