35
 energy: -49.722217708496 gnorm: 0.117015225631 xtb: 6.4.1 (79825abcba525fcdf90b791dcacef51065a7a4e7)
C         3.66830125099454   -1.40007676125232   -2.66502569756654
C         3.03533568316192   -0.10054632193609   -3.14048302584120
N         4.04094124233495    0.99872816426611   -3.06152056088235
C         3.71052622740718    1.68792617886790   -2.00764180164174
C         4.19879731473177    3.05757317455287   -1.65719437784611
C         3.59270048765110    3.89929286098192   -2.78656445799697
N         4.36063662725487    4.69082804974131   -3.46729269669969
N         2.30742406143458    3.72506454013114   -3.27207327910043
C         1.15273946078178    3.02584406840009   -2.67566641480457
C        -0.10842986914041    3.83293856030461   -3.07900523131215
O        -0.22064786117749    5.13904350394154   -2.51337024254910
C         1.03211745319523    1.52299027268077   -3.01204758435352
C         1.86618547213405    0.45578811192772   -2.24695821066322
C         1.01268422079728   -0.71424593404311   -1.66656824904299
N        -0.11426882575143   -0.05972550872715   -0.98386639123159
N         2.70260461444998    1.13534493261251   -1.23791783012657
H         3.84898956800763   -1.49520749585471   -1.58772371900685
H         4.63493487128549   -1.56681026833155   -3.15181257271779
H         3.02274318573417   -2.27570547911321   -2.75924245820879
H         2.91747557269631   -0.25220281962025   -4.22206691662648
H         5.28028521981226    3.12207212243378   -1.80173135803317
H         4.06265490504802    3.22866788995278   -0.58753750480913
H         5.29867853650479    4.81706176808487   -3.06686793528587
H         2.21329389325328    3.76551599694199   -4.28962366040730
H         1.25452625286914    3.19516377215994   -1.59514331681974
H        -0.98965089413381    3.33260247707357   -2.66458889738927
H        -0.27790106068306    3.97301612333873   -4.15398295502936
H         0.63211521305988    5.58503937062615   -2.67692477617967
H         1.33553303690853    1.45465081848411   -4.06529917412314
H        -0.02275351869533    1.24419275739025   -2.88577786662471
H         1.74702821375477   -1.24863516912973   -1.06439683319319
H         0.76983871379793   -1.27738773381275   -2.57628144044606
H         0.22082163281452    0.39285562473387   -0.13694181246788
H        -0.85346050119539   -0.72723122152062   -0.75797509765270
H         2.30544934102732    1.81917530927237   -0.59690520022921
