35
 energy: -49.714232264873 gnorm: 0.116636169202 xtb: 6.4.1 (79825abcba525fcdf90b791dcacef51065a7a4e7)
C         3.35588465287866   -1.57722289153293   -2.71678833743066
C         2.83541492269299   -0.22392741428217   -3.17851018792151
N         4.02678313315270    0.66407319404057   -3.31259494953543
C         3.89808412366897    1.50451603426137   -2.32673449716387
C         4.68354166763710    2.75198947579993   -2.07370995475628
C         3.80827543702639    3.87453050528724   -2.64391419079379
N         4.30437959178525    5.02549436507784   -2.97377429144320
N         2.56531869312948    3.62621704800266   -3.20195434895462
C         1.27319611469194    3.07785042200717   -2.74630066996188
C         0.08901577455912    3.94729411554493   -3.24270417132097
O        -0.86286712773237    4.02008985121730   -2.18107067094100
C         1.06678079153883    1.61168977381918   -3.18679725002382
C         1.82583226226828    0.59215872292771   -2.28994217607745
C         0.91180175068159   -0.25194394819376   -1.34848825418621
N        -0.03666413900119    0.60190988876015   -0.61647181773852
N         2.82749875094277    1.30595823451398   -1.47341815691794
H         3.26615655684248   -1.66971596564348   -1.62790285965287
H         4.43245068305550   -1.65388065194662   -2.90191330789537
H         2.89121209661908   -2.32237515058822   -3.36576845824396
H         2.49162426166486   -0.33774290199046   -4.21560634781988
H         5.66950232740803    2.75433455754203   -2.54545482196581
H         4.89179364262171    2.86946177152434   -1.00843750955522
H         5.21720402321911    5.37676710984408   -2.65824841725760
H         2.43517081985117    4.40746711881298   -3.84895934965511
H         1.21817995030572    3.15599132584755   -1.65203053956787
H        -0.26844806155981    3.46974977754696   -4.16074480881280
H         0.48631955686575    4.95461190913595   -3.41984790580636
H        -1.49828295678577    3.38686564109734   -2.56596167826506
H         1.43470454777657    1.58329287883542   -4.22115499773063
H        -0.00559454164956    1.37493278885853   -3.20634593302031
H         1.52304513776018   -0.81443068243069   -0.64319855455396
H         0.31556193647737   -0.98803667354336   -1.90197384139601
H         0.44514159500102    1.12879389501354    0.10785753998508
H        -0.67867781399286   -0.02339556879088   -0.12677128342583
H         2.57455779936712    2.22316018041200   -1.11145825933442
