35
 energy: -49.718940179432 gnorm: 0.114690165896 xtb: 6.4.1 (79825abcba525fcdf90b791dcacef51065a7a4e7)
C         3.60348747763824   -1.52795581987977   -2.54763229530350
C         3.04897064149807   -0.22282719872324   -3.09956961505663
N         4.13443866228032    0.79357447302690   -2.97886826430845
C         3.74848388144786    1.65021900346148   -2.07774260654484
C         4.33776719563054    3.00222686653157   -1.82879520726042
C         3.59790530528980    3.96544204589381   -2.76482034497674
N         4.02855603398709    5.13214231584330   -3.12950544539638
N         2.44392339849515    3.54163149824820   -3.40256654811792
C         1.26229549916472    2.92301614322604   -2.77091986575466
C        -0.01395432661652    3.70186612318581   -3.18227241669455
O        -0.08370563453283    5.05522767500850   -2.73283586075681
C         1.10177129464061    1.43243094537993   -3.14328969256869
C         1.87611841862320    0.40964018869218   -2.26338214390915
C         0.95885098446311   -0.56148593946692   -1.45726115267740
N        -0.26766454114784    0.09966307824828   -0.98498622296187
N         2.73189305300006    1.12790821640152   -1.29834444168253
H         4.31290484451106   -1.96631834804286   -3.25956134809888
H         2.96472381831056   -2.41739437281333   -2.55233598697737
H         3.97549855781884   -1.42247494239151   -1.52644220203361
H         2.83784025784110   -0.30023608587648   -4.17481202549912
H         5.42798492338188    3.00565472758979   -1.90677386208296
H         4.11951718326835    3.30087380998815   -0.80158980958789
H         4.88940312395794    5.48019624685219   -2.68905305708548
H         2.30799561771794    4.32445864043039   -4.04646942256488
H         1.44497862039975    3.11418459351818   -1.70478601212856
H        -0.90268521530397    3.29643660214253   -2.68789209364908
H        -0.13928731744018    3.64003325572792   -4.27056817940298
H         0.81329128098057    5.44026658002831   -2.72986351484977
H         1.29286987250906    1.27407303697420   -4.21309075470807
H         0.06836643434168    1.08607781697148   -3.00713249118924
H         1.47992051269523   -1.05165766026674   -0.63527478737147
H         0.71999590694766   -1.33899695117228   -2.19353935620733
H        -0.21394592341231    0.84643774504445   -0.29662698493355
H        -1.13269829308287   -0.43002375341430   -0.86605957421339
H         2.19368924595769    1.69828130920352   -0.64929538695959
