35
 energy: -49.723963891675 gnorm: 0.108515274782 xtb: 6.4.1 (79825abcba525fcdf90b791dcacef51065a7a4e7)
C         3.44504750627990   -1.49264460130081   -2.20817806769664
C         2.85666891934658   -0.29499062002384   -2.93956033662125
N         3.94128043725771    0.66758876139331   -3.29018948490133
C         3.85329479440115    1.56146372857884   -2.34781244416700
C         4.71333740530853    2.76731133616366   -2.55617070893773
C         3.83113922317089    3.86338091172478   -3.16582635577273
N         4.34675368493732    5.01426215837748   -3.46458860148704
N         2.51159456425021    3.67239814800142   -3.54044254396326
C         1.38591974900638    3.07729927274161   -2.79437250953172
C         0.08205741744524    3.88338761612792   -3.02845886974858
O        -0.94595808065106    3.50476023068385   -2.11288724904580
C         1.19478101968244    1.59172589293119   -3.17227363766707
C         1.85911458474029    0.62819939497563   -2.14746667578819
C         0.85488678936313   -0.03864684739388   -1.15694197728439
N        -0.27158062171907    0.77101372761162   -0.66702067072068
N         2.84662776025544    1.43817904317012   -1.40698868858347
H         3.88801018721817   -1.19560954427653   -1.25014261968198
H         4.20897022024233   -1.90348122649684   -2.87659218846470
H         2.63270795607629   -2.16186584732911   -1.91732579209680
H         2.43354988249627   -0.58555058636060   -3.91077586818975
H         5.39449975952278    2.58753810268737   -3.39185400658503
H         5.23721977337098    3.13350531215619   -1.67105872746531
H         5.33899855963668    5.11485332136846   -3.21653802138717
H         2.18439156126014    4.32942548260146   -4.25259341596836
H         1.50444012295942    3.13520286337554   -1.70388638834093
H        -0.21649816172170    3.75013785377271   -4.07332089804924
H         0.26748593476830    4.92274271143456   -2.72966700430847
H        -0.91612252394547    2.55915034575824   -1.87247293170128
H         1.71093404309780    1.47249955059320   -4.13427226305250
H         0.16559330995669    1.22159360701710   -3.27326679744650
H         1.53737819724438   -0.34335985755687   -0.36397361468163
H         0.41311627839642   -0.89780853762435   -1.67690420087092
H        -0.96877729149709    0.21664241727486   -0.17611763651284
H        -0.02546927660980    1.55462203987409   -0.06007561617389
H         2.49216791530770    2.11772705349114   -0.73704377187729
