35
 energy: -49.719926677896 gnorm: 0.094816691445 xtb: 6.4.1 (79825abcba525fcdf90b791dcacef51065a7a4e7)
C         3.58075482163752   -1.33410587758535   -2.44615415718378
C         2.81853716803145   -0.17194749626376   -3.06574804867997
N         3.78672987224200    0.95097708686134   -3.23165549423736
C         3.68623458075246    1.68452593914029   -2.16084495797901
C         4.34046308568933    3.02910722013717   -2.12561467137527
C         3.87564206986456    3.87262301959490   -3.31882241271446
N         4.62928504513022    4.77393840101849   -3.86590343752397
N         2.56289538985358    3.61410903385293   -3.67642066838209
C         1.47634804198666    3.08127766513542   -2.83178313575342
C         0.23130277608285    3.95575006121738   -3.13143654231790
O        -0.95096595880773    3.43462127894241   -2.52389115838980
C         0.99446620919606    1.62551392277219   -3.01836652364662
C         1.73473671077323    0.54498605497952   -2.17907467537795
C         0.76834632698455   -0.25525111042610   -1.25170923296151
N         0.35466143743922    0.55983400021544   -0.09888528859680
N         2.69147410884941    1.25008813496342   -1.30326558158996
H         3.85747936188828   -1.01551603588423   -1.43412563739239
H         4.48037443226147   -1.55810745030552   -3.02894908965103
H         2.99334499346682   -2.25361202362920   -2.40365937619341
H         2.57638818875594   -0.42365939060116   -4.10724668616413
H         5.42758278318057    2.98522266965144   -2.02115395962535
H         3.89296152065103    3.56147534592554   -1.28400874071055
H         5.54662793456233    4.83281575582627   -3.40632423280498
H         2.40653227932785    3.82094457122865   -4.66570082439618
H         1.73751047944779    3.23851770945319   -1.77649661575971
H         0.02589400206820    3.97169239040175   -4.20669496563601
H         0.46441901857212    4.95617914087042   -2.74579706152256
H        -0.82262066721202    3.26809201395847   -1.57065312365041
H         1.02840800950082    1.43236913002791   -4.09892806937346
H        -0.09114592519517    1.58197161857964   -2.85719819166360
H         1.29772098022631   -1.10974926732354   -0.83094951236426
H         0.00384548493669   -0.75732513332076   -1.85763071432294
H        -0.49128923164529    1.11853031623318   -0.18026359153302
H         0.09985683651904   -0.05618270558397    0.67480270923699
H         2.30112689300768    1.70699519002143   -0.48160964668103
