35
 energy: -49.728556886095 gnorm: 0.102190749009 xtb: 6.4.1 (79825abcba525fcdf90b791dcacef51065a7a4e7)
C         3.57179702564656   -1.52630030917688   -2.46028939689066
C         2.99827372438839   -0.25019666963648   -3.05871648155727
N         4.02535691763990    0.83190127163000   -3.05192167416721
C         3.72177477940727    1.58752579917554   -2.03619638568876
C         4.26292771960626    2.96870476276300   -1.84474648684552
C         3.64220060116312    3.99835994092462   -2.79649761936094
N         4.09937238288286    5.19355729069115   -3.00178290638534
N         2.46587358622011    3.61712511344619   -3.42013580980663
C         1.30579321210367    2.95562275046223   -2.79201549866120
C         0.00778640631523    3.69591210186658   -3.20648122260984
O         0.00371551168428    5.04945334900692   -2.75221755905866
C         1.13155525877399    1.46986617585417   -3.17729472014398
C         1.85049058837490    0.45327460758244   -2.24475771525206
C         0.89656938873838   -0.60238456969990   -1.60451197644357
N        -0.26430928844989    0.01233262732653   -0.94195221683301
N         2.69354222515508    1.12389029127497   -1.23525512359691
H         4.57305290215406   -1.61246750262146   -2.89885475162431
H         2.98376276955922   -2.42912393881634   -2.65590966282453
H         3.66853756868593   -1.39615922183558   -1.38045041191657
H         2.79094045566896   -0.42605221230877   -4.12304827459760
H         5.30941679219048    2.88825262447811   -2.14979601786165
H         4.21739519545232    3.43152229477156   -0.85697085232942
H         5.03161812571485    5.34170309574316   -2.59537392888272
H         2.12864153748368    4.30326517601551   -4.09939419718904
H         1.46336050057791    3.00021844614902   -1.70585544561477
H        -0.89858282255101    3.25970651866327   -2.77422308036720
H        -0.14792397287814    3.76348174371312   -4.29050518277576
H         0.86780050856723    5.45103008255562   -2.54017863925862
H         1.54065937813660    1.23318189263173   -4.16859920510054
H         0.06427845732669    1.27967004985257   -3.35384650146041
H         1.45638758586408   -1.29067549981658   -0.97181731248491
H         0.48644007538784   -1.16919484384394   -2.44961597638454
H         0.00258192019837    0.51934621127122   -0.10165295787855
H        -1.11325766667335   -0.50839464487257   -0.71584419105041
H         2.26319499186179    1.73653615752759   -0.54553070214475
