35
 energy: -49.727860211131 gnorm: 0.107471806976 xtb: 6.4.1 (79825abcba525fcdf90b791dcacef51065a7a4e7)
C         3.70360421472967   -1.44239556809708   -2.80269655924084
C         3.02623590622385   -0.13407326561168   -3.18341868154340
N         4.00344380698672    0.97378641493701   -2.97462781647656
C         3.64884376938160    1.64570461711835   -1.91745558651275
C         4.14780107399501    3.03681508333795   -1.68722060099049
C         3.56398658083160    3.90896082585177   -2.80518509927844
N         4.05399399794208    5.05129657726784   -3.17207277305300
N         2.48469033830560    3.43847822276920   -3.53441455081646
C         1.32330527968752    2.90260486729434   -2.79825459113537
C         0.06878607429153    3.73946556026094   -3.15947139436338
O        -0.01556618424149    5.02588884724873   -2.54591962137374
C         1.05352866836020    1.43097468562819   -3.18269799102100
C         1.79434541040502    0.35609237659553   -2.33666594099817
C         0.85445446194604   -0.64449822103926   -1.59523491635252
N         0.19200262819049    0.05475310923825   -0.48316158097016
N         2.54841239201155    1.08290110081815   -1.29614252465334
H         4.54556976575178   -1.54192886729963   -3.49801289653557
H         3.07069745662612   -2.33504703356289   -2.76092976381678
H         4.12110035693025   -1.31452809280807   -1.80184964751485
H         2.90083974313934   -0.13470563931518   -4.27474347087498
H         5.21833929709154    3.18645306392269   -1.84915735070069
H         3.91478201256424    3.46794755508394   -0.71161776998164
H         4.87419261349591    5.34568846678290   -2.62727445354419
H         2.26374282056331    3.87035123224322   -4.43473310048683
H         1.48674461728552    3.05784279432289   -1.72319707856048
H        -0.77917777240194    3.16909611052078   -2.76670733866233
H         0.00328905475704    3.84063134080833   -4.25006524822728
H         0.82586555248626    5.46817536632154   -2.76782619789418
H         1.12256373291736    1.32603391397742   -4.27370293540142
H        -0.00516785133579    1.32913737585373   -2.90844315047589
H         1.42229132760319   -1.48475804262406   -1.19652691528527
H         0.15960011994929   -1.00437112715163   -2.36422752318998
H        -0.08966857595922   -0.55719757997920    0.27879263051152
H        -0.60518979248261    0.68005136228825   -0.61154154684059
H         2.00847787240350    1.57516408824432   -0.58733978412663
