35
 energy: -49.727698896954 gnorm: 0.105579400233 xtb: 6.4.1 (79825abcba525fcdf90b791dcacef51065a7a4e7)
C         3.40078475380773   -1.48109318501666   -2.43615436744743
C         2.80576573033952   -0.19425366102747   -2.98885759395596
N         3.92336692247886    0.78350393093164   -3.13321715311012
C         3.81803935454848    1.63867074242866   -2.15729489619964
C         4.47512234384929    2.98021987662957   -2.23241339676785
C         3.78042088442647    3.95013084552073   -3.19573305593069
N         4.47329366875813    4.78076781346180   -3.90960582941051
N         2.44026484995256    3.84764411679155   -3.52963140076868
C         1.36070565195030    3.12522133338571   -2.82922850585574
C         0.09770132184359    3.92647660064563   -3.23842515937922
O        -1.05860589247092    3.51344476014354   -2.50986199398236
C         1.07083873803839    1.61932779211317   -3.01505997048881
C         1.82966313230349    0.63709204923981   -2.07732324177085
C         1.03767534566428   -0.30573088935772   -1.11912867599619
N         0.16836189438330    0.55819082480111   -0.30522734474000
N         2.82550300237411    1.33719496954995   -1.24202939129940
H         3.93363643291499   -1.33917917688659   -1.48841643641457
H         4.14411602052780   -1.82626782226857   -3.16241546550668
H         2.73197550607727   -2.34038768920898   -2.35457734164633
H         2.39251614676134   -0.46861809712328   -3.96899195588903
H         5.47007856631499    2.80958960494275   -2.65147731935077
H         4.51857802813501    3.40033538745173   -1.22564204171695
H         5.45550464546299    4.80537676008531   -3.60818658013928
H         2.35572045343158    4.24595572450547   -4.46777088778894
H         1.46909431475247    3.35472052254525   -1.76051811085183
H        -0.16968163367766    3.74879259221095   -4.28511630044578
H         0.23090309162995    5.01472499001764   -3.19492733912388
H        -0.83295463823687    3.63543255425869   -1.56801925154740
H         1.23955444269450    1.37787714067044   -4.07303293760938
H        -0.01423611871499    1.56003888381020   -2.85530310580780
H         1.77020353623199   -0.88362907300715   -0.55620816223125
H         0.47121414675240   -1.08566824966659   -1.64305627972188
H        -0.78858433497428    0.21896011998933   -0.36500177803598
H         0.45080040183042    0.47406792718805    0.67260030607238
H         2.50722956016960    2.13836150552943   -0.70065365261904
