35
 energy: -49.704484743136 gnorm: 0.120549255472 xtb: 6.4.1 (79825abcba525fcdf90b791dcacef51065a7a4e7)
C         3.61557440192400   -1.48522238746321   -2.70326572819212
C         2.98360489219868   -0.20449491829006   -3.22846677446765
N         3.94274517345941    0.93718515363923   -3.27845220577557
C         3.71198636663197    1.62167672550564   -2.19537784176438
C         4.38179624832406    2.92498139834706   -1.89553358625230
C         3.49437730033891    4.04657369208806   -2.44856207815544
N         3.76162859691581    5.31209581729509   -2.36685973268214
N         2.49018269126779    3.55348805617718   -3.26493794738258
C         1.24864238419960    2.85342143091734   -2.88232675123209
C         0.04670202405077    3.65004428220688   -3.45273294821478
O         0.19687357742333    4.99865315595774   -3.00871879523359
C         1.02371756579659    1.35849963142601   -3.19995728485544
C         1.86894082902271    0.40900490419846   -2.30329174682937
C         0.99303231919254   -0.50846474322158   -1.39481483590459
N         0.13911869641293    0.38016153450299   -0.59127464022426
N         2.79056150952384    1.04391698562791   -1.34045275200910
H         3.73648122207571   -2.22432129783985   -3.50413527048278
H         2.97404195965353   -1.89704251907490   -1.91714717018784
H         4.62952582680431   -1.20975810132289   -2.40599547199718
H         2.50387482323008   -0.38136876649009   -4.20072658090934
H         5.33663720494341    3.03779859309268   -2.41535871625987
H         4.51327685874232    2.86134135395679   -0.81357388850183
H         4.73420809107605    5.52426374419262   -2.11137694546842
H         2.34804930283440    4.15859508570468   -4.07706427547454
H         1.12529448400660    2.92431042748984   -1.79314360264124
H        -0.88190670924024    3.09926126681539   -3.27120752022562
H         0.12590009314963    3.69658647022841   -4.54611340343582
H        -0.05728813997400    4.94136276823220   -2.06798137453860
H         1.19510722879000    1.07876638617895   -4.24802459677583
H        -0.05221766328834    1.23427161160992   -3.01732198346143
H         1.65415909819051   -1.05304018268263   -0.72117373245223
H         0.37504953085425   -1.20638567575213   -1.97333393753670
H         0.05105086402694    0.13978626412792    0.39303238736376
H        -0.77533366518384    0.52135481244331   -1.02352042976796
H         2.17800530616850    1.62923880669889   -0.77615960208990
