35
 energy: -49.729032125089 gnorm: 0.121694034206 xtb: 6.4.1 (79825abcba525fcdf90b791dcacef51065a7a4e7)
C         3.72459832545556   -1.38641361222000   -2.66097403298845
C         3.09432670978463   -0.08764452273947   -3.14205717859353
N         4.03869414699061    1.05450296351350   -2.97015231571309
C         3.67663248984210    1.69340086615377   -1.89518754178248
C         4.19350254445165    3.05209231489676   -1.54311104387291
C         3.62829482702606    3.83719505052428   -2.73284887562499
N         4.30197043019656    4.66173618915469   -3.47172497437950
N         2.35647447706281    3.53777430432573   -3.19201119630728
C         1.11168886456446    2.99921567064978   -2.61031511644744
C        -0.10412215167467    3.83227994479577   -3.09243470238636
O         0.11584011169128    5.21734539362594   -2.82474783776739
C         0.97765018199891    1.50126729292187   -2.96309807601149
C         1.91438284501883    0.47346978948603   -2.26587795238114
C         1.01274156779876   -0.67415081584569   -1.71423808995158
N        -0.18566982359770   -0.09467743774605   -1.08772174969944
N         2.67289911240757    1.08955661784959   -1.15924022749844
H         4.51646013866274   -1.72066931172976   -3.34178654564584
H         2.95394890423530   -2.16211942303825   -2.72032088701651
H         4.07303132866413   -1.36508739577200   -1.62633047074249
H         2.73953351569263   -0.04015885546233   -4.18060488047186
H         5.28641393103503    3.05665048468568   -1.52928836908592
H         3.84018848138056    3.28721608140276   -0.53719853236801
H         5.26248523225902    4.88295404352595   -3.18074123589017
H         2.18657320984468    3.93643837375521   -4.11835136639224
H         1.18185597644029    3.01595523507977   -1.51425113867356
H        -1.06939739756151    3.52447530015034   -2.67755208818696
H        -0.22439091924778    3.80941815258945   -4.18281632542026
H         0.99444603508858    5.44794973185721   -3.18215591158569
H         1.10573613392983    1.31302499926307   -4.03744859547184
H        -0.07963617631978    1.25018710874159   -2.80331957466053
H         1.56290546359086   -1.38171214900571   -1.09446393036925
H         0.57017020126735   -1.21699262904064   -2.55871074715907
H         0.00313316109721    0.53610789608194   -0.31257025843136
H        -0.85919855763201   -0.82804384312137   -0.86072429094914
H         2.09826989935987    1.74199811772713   -0.62973587847567
