35
 energy: -49.723480097230 gnorm: 0.103373208243 xtb: 6.4.1 (79825abcba525fcdf90b791dcacef51065a7a4e7)
C         3.61820355964993   -1.44631157123947   -2.61467178124346
C         2.91362132693610   -0.20960711872195   -3.15282642144825
N         3.87537368655988    0.93074121192407   -3.17563186782797
C         3.64508987999508    1.64019953696061   -2.10864233554384
C         4.23600669185548    2.98269894111231   -1.81595207712173
C         3.58324624707851    4.06940432821639   -2.67867879232020
N         4.02528708773329    5.27036315810440   -2.88347765176428
N         2.47110477230318    3.56983654080653   -3.33562871756069
C         1.26995335934911    2.98909925119743   -2.70484630838874
C         0.09586538304477    3.85280440555644   -3.23415025176115
O         0.41847276190940    5.23125929911024   -3.04912986383486
C         0.93743078521170    1.49346723096561   -2.90178566919003
C         1.80425590450092    0.39793430619239   -2.21740748231723
C         0.92634445501479   -0.72433356011836   -1.58173235002159
N        -0.27343519848459   -0.24330558946555   -0.87913513772141
N         2.66195121747303    1.14109173889898   -1.27314442443763
H         4.64426295329135   -1.48142543088543   -2.99970011705175
H         3.17005100645881   -2.38074403869090   -2.96841933332035
H         3.73766760222671   -1.43474696561169   -1.52934129310879
H         2.60217063582270   -0.36999249890706   -4.19397454386858
H         5.29032159014110    2.89207473561386   -2.08958411187741
H         4.19411786961418    3.17922628367786   -0.74282751685388
H         4.99377768067997    5.43561620920680   -2.58195657555895
H         2.20589795780018    4.05242680431136   -4.19741614999398
H         1.25001564076399    3.06759140461679   -1.60940057352872
H        -0.84803419118460    3.63178958521829   -2.72539329804206
H        -0.19117456025150    3.59945531579841   -4.26242144065928
H         1.34623202051648    5.35753313876852   -3.32514605299501
H         0.96538374002193    1.11372747963877   -3.93187622929389
H        -0.08017181628065    1.32015379707183   -2.52645612359227
H         1.54944839412342   -1.38362823890613   -0.97798127287576
H         0.56314201373647   -1.39823625492713   -2.36762028852331
H         0.06363503752214    0.40274721751050   -0.16963110988482
H        -0.65894474499693   -1.10067231157173   -0.48001137202849
H         2.21883032770403    1.64551110985415   -0.50799185690675
