35
 energy: -49.721678018259 gnorm: 0.120674877248 xtb: 6.4.1 (79825abcba525fcdf90b791dcacef51065a7a4e7)
C         3.60421572388476   -1.30230815074376   -2.80900037831160
C         3.03198484903015    0.05791432474350   -3.18025646982669
N         4.02417916364615    1.12015545180102   -2.84398837401727
C         3.61380863418463    1.69492783551883   -1.75034256077655
C         4.14740422486747    3.04621177980583   -1.39472702915139
C         3.58652322876142    3.81611974709276   -2.59638273824380
N         4.29211338027284    4.56061620517400   -3.38853953100236
N         2.38560553794668    3.49009331176151   -3.20425880965058
C         1.12608959840216    2.99890919409180   -2.61242713593468
C         0.00365150227341    3.90391667325766   -3.18315123199714
O         0.29965927881538    5.29622775840271   -3.29403486457106
C         0.88782744543129    1.50546140850227   -2.92725467325125
C         1.83602939047286    0.47628103943860   -2.24780451847349
C         1.03247451661103   -0.74540304697839   -1.70366840466553
N        -0.06937457886948   -0.27318088823082   -0.85076936140647
N         2.49745474453793    1.16956010224623   -1.12466713434432
H         4.53831053193162   -1.51730838518035   -3.34146584041445
H         2.91171798856333   -2.01526100779371   -3.26866024543097
H         3.72143871140070   -1.39571917173759   -1.72739008900807
H         2.73431528259288    0.07786035105186   -4.23747423343775
H         5.22738208352447    3.21121753134667   -1.36174113253509
H         3.66402138179380    3.47967467523082   -0.51698848385004
H         5.30452580451101    4.66775639218800   -3.24804175655485
H         2.41598325079268    3.91464401073566   -4.13417251273638
H         1.16532218345251    3.06248106478852   -1.51653512692655
H        -0.92192869383342    3.71249177507171   -2.63062485673024
H        -0.02845553450108    3.42604002124389   -4.17033023210828
H         1.14641475248068    5.44755953593536   -3.75552280409588
H         1.01039948354331    1.30108370382189   -3.99929760719827
H        -0.15579365299239    1.29398419955490   -2.65789012543497
H         1.67452214446441   -1.38351396088157   -1.09701145059662
H         0.65188661426865   -1.27201111597256   -2.58770318801317
H         0.40298261139896   -0.03867648078510    0.01887591595063
H        -0.73958440481668   -1.02784665605706   -0.69490578795971
H         1.95430184508881    1.82916805572932   -0.57135369634801
