35
 energy: -49.728163427130 gnorm: 0.108573000465 xtb: 6.4.1 (79825abcba525fcdf90b791dcacef51065a7a4e7)
C         3.70197612362589   -1.25861471835374   -2.56663552397006
C         3.01976502113972   -0.00423304941885   -3.09256241120966
N         3.92440742440358    1.16648506071734   -2.90040821891615
C         3.55743164573111    1.76883568009347   -1.80618203743242
C         4.00639835403302    3.16155550517018   -1.49648004684894
C         3.64704353797140    3.87561348841712   -2.80503172780739
N         4.51892481191458    4.44778566649291   -3.57450351910601
N         2.39890453431016    3.57537077436868   -3.32465963614533
C         1.19356171549062    2.97421985043212   -2.72160639761542
C         0.05301944882004    3.88529843975434   -3.24479944948162
O         0.16116859360793    5.22498843435793   -2.76315597720976
C         0.89252361756172    1.49997948445732   -3.07126753958831
C         1.74633579963882    0.45822943191708   -2.29299171846029
C         0.93456985434069   -0.78019661205538   -1.80142938525350
N         0.25181412064653   -0.44742085773557   -0.54142665595021
N         2.48275569310274    1.13593521221469   -1.20765419105600
H         4.73391081914696   -1.19851339781680   -2.93238995140615
H         3.21855694529533   -2.19334841859162   -2.86949008882232
H         3.84722289762690   -1.28781910367765   -1.48478611458127
H         2.87243096414154   -0.15893031212749   -4.17009470776515
H         5.06477550041742    3.26936415745555   -1.24571673346281
H         3.43117604500587    3.54532725732862   -0.65160577307761
H         5.50670925567563    4.54942407549186   -3.30964680224502
H         2.24447216833870    3.81520252866904   -4.30676806323137
H         1.20815188851029    3.20739135590617   -1.64830399034939
H        -0.88598213419141    3.48813084508911   -2.84584892139229
H        -0.03683360624539    3.91364295490874   -4.33797937142361
H         0.96589297822391    5.58432069020896   -3.18287761802537
H         1.04429607957646    1.29685637158063   -4.13980688064123
H        -0.18228529989480    1.36804019279504   -2.88741249516775
H         1.56222872209320   -1.66855927126716   -1.73585893006782
H         0.09664515736773   -1.00006518549916   -2.47464607837566
H        -0.35218906083355   -1.23170159391635   -0.30801623839575
H        -0.32652819907032    0.38584080532763   -0.66054948036073
H         2.00687246746265    1.64977790404078   -0.46890232233719
