35
 energy: -49.717385585188 gnorm: 0.110121206466 xtb: 6.4.1 (79825abcba525fcdf90b791dcacef51065a7a4e7)
C         3.63569041030211   -1.40939500983555   -2.89484670348948
C         3.08971600694166   -0.01065894951360   -3.14169447538378
N         4.06467255729359    1.11161500105911   -3.01582585926669
C         3.83743323669902    1.69020891747060   -1.87196406446253
C         4.27816945171378    3.07366094916273   -1.51284426572982
C         3.65211646737746    3.82019568846353   -2.69693284199278
N         4.27168625427920    4.64265600444883   -3.48391259812474
N         2.31605171919805    3.70753148310781   -3.04370024452438
C         1.19246013168143    3.01728174732609   -2.38112629057765
C        -0.10149363880090    3.73269650883576   -2.84856314707611
O         0.09336755215196    4.93416905010128   -3.59484647758796
C         1.04681364195018    1.57704951164268   -2.92037556405126
C         1.93446018238208    0.51409773930859   -2.21173682944149
C         1.00509046454637   -0.63285553350161   -1.70669556503733
N        -0.20449353071385   -0.13854508239488   -1.03062921736576
N         2.78388306933659    1.12920119859602   -1.17265770010384
H         4.15571926713107   -1.41433764013611   -1.92953678464894
H         4.42687805133499   -1.67389165658900   -3.60421664782005
H         2.94065552889339   -2.24663720104413   -2.98594933377750
H         2.60367915491516    0.03418044670910   -4.12580424343924
H         5.34204446407031    3.31390785595318   -1.44130042697771
H         3.75958189122010    3.37908855107136   -0.60193541331773
H         5.28983480818017    4.68684122101806   -3.35117693354395
H         2.09930670933707    4.47377442535130   -3.68541588117238
H         1.18260967383095    3.04930048478513   -1.28320204152463
H        -0.80112485032454    3.98456257519350   -2.04500403365281
H        -0.55799117783882    2.97068069069386   -3.49266036731010
H        -0.11923911890945    5.74681063148881   -3.09757459653278
H         1.27959653747587    1.64988333232087   -3.99115919132318
H        -0.00678022335862    1.28499094349020   -2.81517746308497
H         1.49430304233488   -1.40654739876848   -1.11549737013091
H         0.57285390262738   -1.10685380128365   -2.59673933265501
H         0.06262895806181    0.17789199535788   -0.10169989314835
H        -0.94679724618528   -0.82175764503154   -0.87188139592236
H         2.36672443275287    1.64203883928207   -0.39855841121407
