35
 energy: -49.731478079078 gnorm: 0.102083547344 xtb: 6.4.1 (79825abcba525fcdf90b791dcacef51065a7a4e7)
C         3.53119573387566   -1.54018446272077   -2.81634694462327
C         3.01386617289490   -0.14847130042963   -3.14949710707401
N         4.09440800524419    0.86574727749123   -2.97724143768506
C         3.70177177240884    1.61720046956014   -1.98932277445691
C         4.16408219599130    2.98022510066726   -1.58239792062681
C         3.62210343913825    3.93637022249794   -2.65168165503131
N         4.14930753035809    5.06375897288194   -3.01319963111216
N         2.48535841853097    3.55177175412425   -3.34298810834028
C         1.26205991735696    2.94769024371711   -2.78037521309980
C         0.06074207818002    3.74595841731187   -3.34979174908528
O        -0.04231818282154    5.10361634927689   -2.92015298064663
C         1.00362179162377    1.45801901276003   -3.09717306798843
C         1.83643988437666    0.42878486098234   -2.28044621515682
C         0.90765991909953   -0.62611728686877   -1.60306466161825
N        -0.03247344984052    0.09101846570622   -0.72764046124961
N         2.62022076514078    1.15454050528970   -1.26136662716305
H         4.31024962925972   -1.72022831130265   -3.56663816986341
H         2.65647315686630   -2.19885908478465   -2.82860405418605
H         4.14842168902182   -1.44675217874516   -1.92043947473315
H         2.77769412479661   -0.20734991671912   -4.22069759406731
H         5.25580996894939    2.92780665298989   -1.57533361442024
H         3.83082887150738    3.28649005038535   -0.58885980289181
H         5.04992408121670    5.21462542411355   -2.54168430060821
H         2.20386651521207    4.22971637042737   -4.05506886648598
H         1.19605312217778    3.01695712238325   -1.68611515367813
H        -0.88875002157658    3.27745508530999   -3.07122942037589
H         0.12094241953768    3.78089822611296   -4.44481433005490
H         0.84522502995170    5.50581658615187   -2.97819843515544
H         1.15112093526275    1.26400472221880   -4.16800109014999
H        -0.05399247127277    1.30763817260612   -2.84170770838760
H         1.56445429286764   -1.29939525189745   -1.05282717921719
H         0.43085270731453   -1.30135074975517   -2.32444899026399
H         0.54754460785292    0.47600737839168    0.01381697505267
H        -0.57558421567090   -0.60663907777216   -0.21646560460365
H         2.11899505036394    1.68693820251090   -0.55314424231392
