35
 energy: -49.717122656908 gnorm: 0.126451705326 xtb: 6.4.1 (79825abcba525fcdf90b791dcacef51065a7a4e7)
C         3.56365369396412   -1.51222344347665   -2.86356940758595
C         3.01629088617117   -0.10291930971602   -3.03602295588046
N         3.98731709780434    1.00382318938249   -2.79496047883479
C         3.71491971386616    1.69056118310263   -1.72303744002187
C         4.21461234835340    3.09119426519096   -1.56275907202103
C         3.56468851806538    3.91848179105756   -2.67833809657053
N         4.04401172983959    5.01763814667494   -3.17001825695153
N         2.48933871921923    3.38358704913192   -3.36791788943153
C         1.22144683681517    2.98519970988955   -2.72632245065184
C         0.07197712708885    3.84267408299335   -3.31631306139524
O         0.40744360512443    5.22991967988532   -3.27813118852660
C         1.01373012816115    1.48034478580192   -3.00656693281219
C         1.82581233431562    0.45088515464416   -2.16949643024495
C         0.86936311613265   -0.67537930114254   -1.66846769754955
N        -0.06331340038043   -0.10410746435022   -0.68446314123341
N         2.56731122860243    1.19389861591379   -1.13138887621765
H         4.51143337818489   -1.57017537397717   -3.41186943579044
H         2.83180580806405   -2.07252341965803   -3.45484319334778
H         3.62082363577851   -1.81131918406986   -1.81494125942556
H         2.64816784193615   -0.02932169439793   -4.06839073564277
H         5.28429096547587    3.06998957650453   -1.78637740993051
H         4.01423556463983    3.49485101103502   -0.56833241861063
H         4.73429084621435    5.46276029122001   -2.55229778317630
H         2.40412604323921    3.50281207242893   -4.38005908138554
H         1.30767621394243    3.23909812282521   -1.66111825416451
H        -0.79460255018744    3.64980762938827   -2.67563389816848
H        -0.15174053180775    3.54656284557495   -4.34887680000036
H         1.38140534475072    5.29509883577765   -3.28231069683192
H         1.05769151898942    1.19345851459771   -4.06573352232251
H         0.00135513948930    1.23154963005449   -2.66070173028933
H         1.39444702303117   -1.59646136293558   -1.41679714068526
H         0.24748442895252   -1.02457727391517   -2.50213932136113
H         0.33056775731461   -0.17629341716156    0.25043971914210
H        -0.90774128806241   -0.67840942397886   -0.67379139688462
H         2.07968454150055    1.66503509680363   -0.37211020991866
