35
 energy: -49.720753625180 gnorm: 0.121500757854 xtb: 6.4.1 (79825abcba525fcdf90b791dcacef51065a7a4e7)
C         3.51035580572147   -1.47369144792907   -2.66744938288731
C         3.04514661346514   -0.10443550806674   -3.14095016615543
N         4.02520449474789    1.02016745805281   -3.11571744304491
C         3.73370116151253    1.67462528952364   -2.02873117282782
C         4.28114790373745    3.03353537320308   -1.72736701176986
C         3.61986390281520    3.92403520042637   -2.78615673940535
N         4.14682077483811    4.97425833997929   -3.33295890577637
N         2.41762827035066    3.54300282498362   -3.35839239479008
C         1.25047556802082    3.01969980291954   -2.62231123403433
C        -0.05646127103589    3.77672079220606   -2.97369012347857
O        -0.02153941581477    5.20403452628654   -2.97230849376938
C         1.00896355532674    1.53388421912316   -2.96914764894563
C         1.84533671735062    0.42340810582198   -2.27109725183803
C         0.99661148755201   -0.69544324423529   -1.59129314444325
N         0.00027419239139   -0.24705080127701   -0.60602254763942
N         2.65167826845231    1.20038395707798   -1.30897525538100
H         4.44340157455030   -1.66088401682205   -3.21211644901301
H         2.84564933887613   -2.29684944490540   -2.94979366875049
H         3.68159986149103   -1.48709591914040   -1.58909719050525
H         2.77621311835828   -0.26219799483048   -4.19427830700323
H         5.37189747751575    3.09446683385700   -1.76229330279090
H         4.00261652169490    3.26957680896410   -0.69844587930989
H         5.05716536666885    5.18651436253218   -2.90585508861819
H         2.21944389622537    4.12363292772979   -4.17662049763082
H         1.41475366035812    3.15061614128747   -1.54414914519343
H        -0.89229379508978    3.48736314919487   -2.32848958892805
H        -0.21827580293101    3.40877059382806   -3.99464459819528
H         0.92247274822747    5.42613695273774   -3.08356857773475
H         1.28774069577112    1.38277457550566   -4.02058446720495
H        -0.05282437058966    1.41269440314328   -2.71548588590811
H         1.66858707605936   -1.39922111905706   -1.10079456783958
H         0.70616409683202   -1.24626021831512   -2.49457697163715
H        -0.49445485495944   -1.09388674468053   -0.33674835736612
H        -0.56458623478274    0.51048644752779   -0.99340490796303
H         2.29997780306170    1.67271308517843   -0.47863470097897
