35
 energy: -49.706268518647 gnorm: 0.115369881575 xtb: 6.4.1 (79825abcba525fcdf90b791dcacef51065a7a4e7)
C         3.41950287755314   -1.73573823419199   -2.68320091488045
C         2.99255023337627   -0.31447841563627   -3.01967737370597
N         4.18339406976243    0.55824880506717   -2.80492132582926
C         3.85955300725182    1.51712279641615   -1.98607088688327
C         4.36653554014443    2.91980364608192   -1.87377638152114
C         3.58303093738217    3.97653144823975   -2.66166537211983
N         4.21362839872742    5.06779991148437   -2.96353421108108
N         2.31367917583251    3.84386973159637   -3.19939840292124
C         1.15263699711038    3.01897053348629   -2.81283744717846
C        -0.05208299124738    3.72294126245718   -3.48937777474428
O        -0.48482577153721    4.94602482715597   -2.89335240577873
C         1.29856272441757    1.58306389909312   -3.36342748704186
C         1.83035224076583    0.51753860073415   -2.36252416145648
C         0.80324242276218   -0.39290319721911   -1.62060925263627
N         0.32612045745515    0.26676474092218   -0.39517266834160
N         2.63363124215836    1.28360001036382   -1.38915386735500
H         4.50568028610197   -1.85058638519302   -2.77966967424798
H         2.81279931405211   -2.42663180934314   -3.27794366103172
H         3.40031412241498   -2.06129168203446   -1.64109036149839
H         2.88545602180978   -0.37383468230973   -4.11133761881232
H         5.41941878952028    2.85849989013510   -2.16073604075772
H         4.17407121857040    3.24096255530828   -0.84820900129294
H         5.15636508279035    5.07775892582079   -2.55445484166773
H         2.01168308404389    4.66192715758831   -3.73370731532137
H         1.10942706852931    3.14562682489991   -1.72258473099159
H        -0.90986708855231    3.04913821182559   -3.58331120472558
H         0.36598211085747    3.99823791527025   -4.46577557491517
H        -0.64656502789362    4.63080108848959   -1.98376916573015
H         2.01632803645972    1.69802808889719   -4.18663245453309
H         0.35028538909816    1.25794439492033   -3.81230640725210
H         1.33037244477333   -1.32289103699593   -1.40918568218067
H        -0.01942683683697   -0.70021698288531   -2.27822178152896
H         1.03178559531857    0.21739405186670    0.33557748611075
H        -0.40814979860165   -0.32072077905578    0.00320283542533
H         2.18440256049304    1.97625568765368   -0.79360773987239
