35
 energy: -49.719752009968 gnorm: 0.126969372795 xtb: 6.4.1 (79825abcba525fcdf90b791dcacef51065a7a4e7)
C         3.50524923905164   -1.50916430685579   -2.53423164735724
C         3.05614441488731   -0.16435859533637   -3.08675940614111
N         4.07836382955589    0.92122549247071   -3.03719458606582
C         3.68723044408534    1.64836248093499   -2.03065850579543
C         4.21539442006208    3.03563193230856   -1.84713417826486
C         3.66488790403853    3.93369709153547   -2.96146971876378
N         4.24300194500475    4.94665918096269   -3.52656859329540
N         2.34307108999717    3.70178570399925   -3.30356215067368
C         1.27194456093075    2.87466423110312   -2.71494938445510
C        -0.02602823677686    3.67285441932231   -3.00268342907826
O        -0.06729867007250    4.93397486136571   -2.33461311781177
C         1.13529598869734    1.41994173057268   -3.21632864710720
C         1.87199066578780    0.44748468825306   -2.25115509574633
C         0.90731525952361   -0.59878200158831   -1.61160527687833
N        -0.12389088904336    0.16734906643012   -0.89455642278167
N         2.69731226022889    1.11482927634206   -1.22497166622355
H         4.53015183774702   -1.47249333268300   -2.92218473144881
H         2.94820862268717   -2.32177022157160   -3.01226874298360
H         3.62849745426941   -1.45648177700773   -1.45054253129314
H         2.71929205211635   -0.36204627562169   -4.11348454012766
H         5.30229497949084    3.05959665205728   -1.96000576005533
H         3.95995494930239    3.56488563925332   -0.92701724232091
H         5.23256176349625    5.10262902831955   -3.29712943753429
H         2.08264252973554    4.14797466304216   -4.18617076289643
H         1.40409362358784    3.10445531460400   -1.64897913561720
H        -0.85867346959280    3.07662421042712   -2.61559293335571
H        -0.24621811053655    3.85135298822434   -4.06267116864227
H         0.77079595826877    5.43283539375146   -2.37464838583952
H         1.68279199264244    1.31269228489026   -4.16227573885003
H         0.04273766294792    1.31069314826799   -3.18793964464530
H         1.50268434606058   -1.26793891422646   -0.99095396836607
H         0.44385643630615   -1.12250784703206   -2.45694418922250
H         0.17398853767049    0.26166869846923    0.07331143807911
H        -0.99967126515729   -0.35760358607481   -0.91525749413013
H         2.18841660160714    1.68753935027785   -0.55468675452746
