35
 energy: -49.721109061195 gnorm: 0.119629050452 xtb: 6.4.1 (79825abcba525fcdf90b791dcacef51065a7a4e7)
C         3.75778902912205   -1.37242096605533   -2.70990007103561
C         3.02335002300185   -0.15197773546327   -3.24525240068687
N         4.03876408762897    0.93750572900711   -3.15669695451414
C         3.78881433738199    1.53019446765610   -2.02485174093168
C         4.28967661106935    2.91180339116566   -1.74655573628070
C         3.70014726390519    3.85814277908875   -2.79927558046710
N         4.29172869548685    4.80029825513024   -3.46412087189478
N         2.33886885794324    3.84888583335224   -3.05392284342915
C         1.22686225196806    3.02728767090483   -2.53785625716821
C        -0.12592550314860    3.69606948229308   -2.89468673782671
O        -0.28093739648672    5.03541031989943   -2.42502368806897
C         1.28885614053860    1.63152862220751   -3.19685925522375
C         1.86892636416791    0.45261435417915   -2.36401393421163
C         0.92310276680667   -0.57593402735014   -1.66989401021273
N        -0.27713913821727    0.10996186003592   -1.16643779050506
N         2.75749071657065    0.96040185100472   -1.29998283410164
H         4.03141414722903   -1.25355856307214   -1.65477983801078
H         4.63185137540754   -1.35423436969733   -3.36931371190165
H         3.08525567552876   -2.22773700491369   -2.80199258444637
H         2.79173507597207   -0.35110454734660   -4.30043837681045
H         5.35446692081678    2.98457507322916   -1.98233745041863
H         4.04402996198035    3.37217392752822   -0.78755068978724
H         5.25709653227678    4.82840346206317   -3.11273418259903
H         2.05423796235945    4.42332348464019   -3.85073663982833
H         1.24030485221028    3.03127800486375   -1.43951057168757
H        -0.88270473663868    3.03780760866689   -2.45581991391286
H        -0.26702116298194    3.81747133016940   -3.97601597968216
H        -0.33415178345511    4.99489938569544   -1.45116828153884
H         1.80394712548860    1.80568505232997   -4.15101910029077
H         0.24174628550556    1.41772880144939   -3.45038529297854
H         1.47501327429507   -1.12524567875442   -0.90759823430066
H         0.61148504562583   -1.30689895889769   -2.42637623919271
H        -0.11587268844922    0.83161846438818   -0.46815317014621
H        -0.93710070779836   -0.56646826887427   -0.77928395729910
H         2.32946816226010    1.33873450721500   -0.45741855527488
