35
 energy: -49.721040982709 gnorm: 0.121566809129 xtb: 6.4.1 (79825abcba525fcdf90b791dcacef51065a7a4e7)
C         3.67733311709520   -1.38970428385417   -2.77529013433134
C         3.15144853464488    0.01741904732882   -3.01805289722943
N         4.16769348562352    1.07157718817200   -2.73190817018413
C         3.65927328727564    1.77280598588420   -1.75999485340526
C         4.02707053071034    3.21764789756415   -1.64036218105233
C         3.60629275112247    3.80145201914678   -2.99440834320379
N         4.38820864644638    4.44952354772012   -3.79955159198645
N         2.36891638955456    3.49383893138029   -3.53504111232685
C         1.19205998492216    2.98394188916085   -2.80502672874632
C        -0.01236348963056    3.82226624104729   -3.30623348207743
O        -0.24114699063021    4.92828635325359   -2.43283575963795
C         0.99153632177208    1.47047172184016   -3.04054711349388
C         1.89057915333861    0.50651455830082   -2.21443559416653
C         0.99921977646638   -0.59646176345492   -1.56388334286514
N         0.20600115260890   -0.16030798911667   -0.40410920109744
N         2.58421968998141    1.19555561544168   -1.10825199286050
H         4.50592075537470   -1.53435830526634   -3.47870709430892
H         2.92885007330044   -2.16866130720085   -2.95456969834779
H         4.06211661519823   -1.42019323949597   -1.75384030876981
H         2.90919813598115    0.13472673414297   -4.08307311500034
H         5.11002414728422    3.24044823095607   -1.78650856950876
H         3.79977494410441    3.73380187370569   -0.70553825464777
H         5.29655586231593    4.59626031276912   -3.34176208817176
H         2.27731911996509    3.76070458068035   -4.51804582218975
H         1.34001459871071    3.17692764004979   -1.73384708782519
H        -0.97384864587286    3.30726825942993   -3.21162393758906
H         0.07244088906260    4.07122042259414   -4.37147963212050
H         0.39963909211285    5.56476787019020   -2.80317578924757
H         1.00449333957094    1.21233342669556   -4.10791159626564
H        -0.05365776811660    1.33118121552312   -2.73298842956982
H         1.56828567570307   -1.40534898489825   -1.10638053374573
H         0.52239663747510   -1.04887453904301   -2.44231551297609
H        -0.41312269977363   -0.91039206118811   -0.10669353808289
H        -0.47213554295824    0.58584736569246   -0.56652191297396
H         1.96978627616098    1.61402189846739   -0.41283052108820
