35
 energy: -49.722442694799 gnorm: 0.117362634954 xtb: 6.4.1 (79825abcba525fcdf90b791dcacef51065a7a4e7)
C         3.44908228938620   -1.39152106756575   -2.57275665876516
C         2.84991877079763   -0.03864465656035   -2.92802127264324
N         3.91032240302348    0.99212090748118   -3.12537502275968
C         3.96898820519785    1.75631740066577   -2.07304879408256
C         4.51193873617022    3.14601137597396   -2.17845444146503
C         3.62310588435480    3.70968758525024   -3.29360801702557
N         4.07974790443562    4.18966072979812   -4.40749700037383
N         2.23822629081632    3.72056658461525   -3.29358378720027
C         1.15470630683104    3.05403297848248   -2.54550334021156
C        -0.12226009168937    3.89703629291466   -2.79716594827172
O         0.02945962954378    5.20949243625778   -2.25597655630696
C         0.84245652987211    1.54860851995684   -2.69539933843746
C         1.87953890041367    0.68414727285131   -1.92266483192266
C         1.15548319813948   -0.16878756809678   -0.83521732485120
N        -0.01385531505679   -0.82323366158155   -1.44254733329384
N         2.93328831418444    1.43663026468567   -1.21348327239410
H         3.93318138142267   -1.33635993519883   -1.59047207569992
H         4.21882306615661   -1.67272973064657   -3.29909191630588
H         2.62950356016200   -2.11132750601831   -2.52258627825195
H         2.41359317250516   -0.10693062621270   -3.93384005775511
H         5.55928285243167    3.23282211035219   -2.47878982961532
H         4.22847953133599    3.63403297014268   -1.24386371812642
H         5.09794282632106    4.22331219250945   -4.54293792579981
H         1.98777840898464    3.90716491125381   -4.26742285529521
H         1.31623621574223    3.23303977403832   -1.47385761916551
H        -0.84976706844219    3.32730240526763   -2.20999944960111
H        -0.43246112613728    3.96986676392152   -3.84711374188235
H         0.89219867405258    5.56587609854800   -2.54152740501276
H         0.84426976666919    1.37583182398026   -3.77993386331583
H        -0.17252019436112    1.26888725874488   -2.38234481754942
H         0.78801487275168    0.52861233045200   -0.08285851465027
H         1.80140230333975   -0.86965381086418   -0.29184293410911
H         0.30319093982527   -1.52227263826744   -2.10979745247510
H        -0.55811772119814   -1.26907217494180   -0.70227607146947
H         2.46664605745875    2.04830690774992   -0.54688730449642
