35
 energy: -49.712225580419 gnorm: 0.110781464796 xtb: 6.4.1 (79825abcba525fcdf90b791dcacef51065a7a4e7)
C         3.47566062639062   -1.47715657084316   -2.26326179162775
C         2.83417844548814   -0.30560767947853   -2.99227362163655
N         3.95188091366180    0.64903643510844   -3.24776884712991
C         3.87311546894833    1.55975374797014   -2.32082851665259
C         4.61694488775321    2.85343565901609   -2.42211919771252
C         3.70422074563052    3.90988726770128   -3.05628545575633
N         4.20143852170497    5.01687339833377   -3.51125909772247
N         2.44832134999372    3.54918502796405   -3.51521952682599
C         1.30755290300387    3.05611092901598   -2.71933491871779
C         0.06829024660010    3.85531887687029   -3.19905001843782
O        -1.07969890656235    3.48253217570030   -2.43642498412233
C         1.19752224850432    1.56847806091075   -3.12072410216233
C         1.86662073819042    0.57969892726089   -2.12344042975981
C         0.95015856347011   -0.22243447283400   -1.14826063637600
N         0.27246169192418    0.76547457741365   -0.29429071241932
N         2.90151073095187    1.31267292301646   -1.36759074103954
H         4.41303896424509   -1.04259514963736   -1.89617064884094
H         3.67511365553705   -2.38840419078187   -2.83683684384742
H         2.84670236258414   -1.87174722138260   -1.46260119841447
H         2.38357865211790   -0.56982834195042   -3.95863881255593
H         5.50517921612848    2.76600598814565   -3.05304150781001
H         4.89040266354174    3.34451909523029   -1.48615344094099
H         5.19675474084646    5.14060371987195   -3.28712967059227
H         2.18339917913030    4.38564202681744   -4.04063513177350
H         1.50226067589711    3.19945712208019   -1.64784033252001
H        -0.21063802242821    3.78359335952940   -4.25530854079266
H         0.32415581983297    4.91037204234935   -3.03994325450654
H        -1.61221930839307    4.28491098073123   -2.27680814186486
H         1.71913603511942    1.60908038312295   -4.08630202671450
H         0.19202618268509    1.22285927933440   -3.39631471208453
H         1.43915866030642   -0.87385292487495   -0.42439859547587
H         0.26588251833921   -0.78579386884693   -1.79484643092707
H        -0.40132090811372    1.28933531470745   -0.84744844191788
H        -0.25505881488308    0.22434363507716    0.39265506735255
H         2.90247088991659    1.94198130694860   -0.56745106812051
