35
 energy: -49.722805106838 gnorm: 0.119699339356 xtb: 6.4.1 (79825abcba525fcdf90b791dcacef51065a7a4e7)
C         3.67266885974102   -1.29465567103599   -2.87359654317129
C         3.04569728810872    0.04551296321014   -3.22903868393864
N         4.01842534498642    1.15409969888952   -3.00383306146133
C         3.62048058045321    1.69235454288043   -1.88725341180554
C         4.06219751441838    3.07534694646633   -1.52756866524544
C         3.60499278260438    3.83678028543801   -2.77757079519949
N         4.10510385373265    4.87168951413877   -3.37631667960184
N         2.51788773951442    3.34268847465155   -3.47905906763709
C         1.27988610244951    2.95596543618801   -2.77499640373813
C         0.06773227932657    3.85059422511010   -3.14235762631259
O         0.27459125273587    5.17656026670072   -2.65504932713556
C         0.80255086226689    1.48765314460739   -2.82481231984804
C         1.84219790986648    0.45509247171555   -2.30241003097148
C         0.99032952922481   -0.72652675114759   -1.74348891220687
N         0.02073576025982   -0.25529708093311   -0.74232334539948
N         2.59319039038862    1.07749822621873   -1.19417796743218
H         3.79805800986064   -1.34562383078407   -1.78549843766257
H         4.58149447429313   -1.41158996621388   -3.47318344484308
H         2.99144272146175   -2.10777468876371   -3.13266424932211
H         2.79968526502201    0.04939067038924   -4.29963545802981
H         5.14038131613509    3.16352011977729   -1.37132422348447
H         3.56879288423860    3.45192628380866   -0.62939614248189
H         4.94094238673707    5.31587611221301   -2.97597959837228
H         2.40531703504720    3.89671933965797   -4.33128160167399
H         1.45486375225414    3.11846296845184   -1.70283164235626
H        -0.92161691254286    3.58685599664012   -2.75472647380777
H        -0.01725235836251    3.76476096610414   -4.23292151413474
H         1.00466592604690    5.67513157286493   -3.06891510602261
H         0.53619660790853    1.22436177587881   -3.85718980515603
H        -0.03081255829529    1.43684540923516   -2.11112551175715
H         1.39279651624398   -1.64302019567167   -1.31278781987907
H         0.42949538251132   -1.10587820602538   -2.60676073559811
H         0.58960634586319    0.03262513296699    0.05006771644516
H        -0.67206519733918   -0.93577782357957   -0.42614637712958
H         2.09191361315918    1.48673036376974   -0.40836365925291
