35
 energy: -49.718872081328 gnorm: 0.099298440644 xtb: 6.4.1 (79825abcba525fcdf90b791dcacef51065a7a4e7)
C         3.49728286309935   -1.53301175796407   -2.52433335864366
C         3.03270427543512   -0.14297584591499   -2.93354147813356
N         4.12324869412402    0.87340781934820   -2.87388344368265
C         3.79966563184143    1.80181755371888   -2.02055012404810
C         4.27863190252267    3.21814256303966   -1.97848264747346
C         3.73269852525311    3.87386869481107   -3.25257139743147
N         4.39809087362846    4.65212931049139   -4.04705753394130
N         2.50290331614749    3.44740644625353   -3.72558674633200
C         1.33626072743564    3.07257802153226   -2.90317828257448
C         0.06668824788549    3.82442375029736   -3.38019562349390
O        -0.61542105816786    4.14459491854961   -2.16748655634882
C         1.00487258414169    1.56450879291356   -2.94987531612693
C         1.88722236385041    0.57832527478899   -2.13204124117133
C         0.90194946713682   -0.34905398176011   -1.35518762552881
N         0.45509174385911    0.17836976177798   -0.05647891241006
N         2.71798161119191    1.41930718133105   -1.24765138817678
H         4.00616446840326   -1.63488164235950   -1.55844532128550
H         4.19368152910162   -1.91894346855297   -3.27614961403901
H         2.69785037479953   -2.27682204871897   -2.52559808486855
H         2.74185620085778   -0.18761210495350   -3.99190313840243
H         5.35810169959793    3.34262510852741   -2.09644954035370
H         4.09684250476122    3.60141628226460   -0.97248670251770
H         5.30019752491108    5.03104467714211   -3.73269422690844
H         2.21619520610014    3.78460881963909   -4.64754043795310
H         1.42997530090454    3.37640916741882   -1.85176775875578
H        -0.64580014219626    3.28622024148071   -4.01369768676343
H         0.29381153166877    4.78386565242271   -3.86165753966712
H        -1.38544169605910    4.70222626871967   -2.38880703903118
H         0.85383919335410    1.16329151076277   -3.96095582438304
H         0.03826849109059    1.49952468214679   -2.43230554367401
H         1.36108927057800   -1.32436796599557   -1.19582445713540
H         0.02003056035058   -0.52640136361825   -1.98323829724777
H        -0.26156641706203    0.88215424249530   -0.21611919735140
H         0.07226344865820   -0.66169467670245    0.38024676847593
H         2.30877561611844    1.93521359714929   -0.47134958839904
