35
 energy: -49.714958500714 gnorm: 0.135985288107 xtb: 6.4.1 (79825abcba525fcdf90b791dcacef51065a7a4e7)
C         3.78311881625126   -1.29049375188430   -2.70958169448211
C         3.06678942360972    0.01330445135470   -3.02968618094820
N         4.04809227747052    1.10986204633962   -2.78374276909555
C         3.58695895184648    1.76280443779047   -1.75619679019795
C         4.10684829346590    3.14021657039784   -1.49236754477159
C         3.65683413125901    3.74771400101981   -2.82644262836938
N         4.37852537210641    4.39649916272634   -3.68544459441094
N         2.35864234368476    3.52853247995851   -3.25617204923205
C         1.09486904220787    3.00021108229080   -2.70693576432553
C        -0.02342660348935    3.94295992883644   -3.22198069701608
O         0.13419022519147    5.26593185293872   -2.70880608898593
C         0.82053143600948    1.50958111066667   -3.00531920754385
C         1.79904522114681    0.55047834328222   -2.26871596654647
C         1.00351529580988   -0.71194871639409   -1.81296753082593
N        -0.07446249587312   -0.26894535652320   -0.91507338817010
N         2.52538493302595    1.13868296853926   -1.12591113195750
H         4.52915940507290   -1.41768015130803   -3.50300764719965
H         3.03240132050092   -2.08709900290946   -2.67819068168716
H         4.29549422098574   -1.31816190472218   -1.74570743932735
H         2.74121759489314    0.02464888617163   -4.07877565028207
H         5.19481754012711    3.14054748360321   -1.38753456432092
H         3.50696783633689    3.61841026204403   -0.71554823278616
H         5.35632876995451    4.39447395865608   -3.36906826342494
H         2.18661386686814    3.69745857340189   -4.25004114256513
H         1.17997630148010    3.19448211272838   -1.62917168816241
H        -0.95619447314730    3.46354756811424   -2.90775866870697
H         0.14308246868190    3.94713672804949   -4.30649746254206
H         1.03374497113045    5.61265788251750   -2.86193864188139
H         0.78590647896510    1.18057505733018   -4.05251848327098
H        -0.14706210532457    1.26563865753028   -2.54632063045500
H         1.71127642523158   -1.33311365531750   -1.26463216782971
H         0.53590767772710   -1.28124593267762   -2.62594016416531
H         0.44294715367954    0.19884299606132   -0.17489918314668
H        -0.62401903543453   -1.11684297463900   -0.76657312435360
H         1.94386296330249    1.64098360266354   -0.45824372759848
