35
 energy: -49.720416146763 gnorm: 0.116637013421 xtb: 6.4.1 (79825abcba525fcdf90b791dcacef51065a7a4e7)
C         3.71662587681617   -1.33902767595772   -2.96622147520935
C         3.03943768598801    0.00949770679930   -3.16212932080807
N         4.02897194014752    1.09070132932564   -2.88337729412668
C         3.64837895693600    1.66461239172947   -1.77856803524854
C         4.07764286777802    3.07297251958270   -1.51511182215822
C         3.64409865191376    3.89156308323620   -2.73710654179582
N         4.23235250909229    4.79440226109547   -3.45716461179330
N         2.44137110661523    3.49419723238660   -3.29706787524528
C         1.25362551767336    2.93394019335578   -2.62380756115339
C         0.02662174423300    3.76239064126139   -3.08507043330982
O         0.20338801730989    5.17660489294786   -3.00023120478108
C         0.94429935614135    1.45744451234602   -2.95629722848266
C         1.82913078352420    0.39992746691730   -2.23610090639967
C         0.88439744465666   -0.69752713036965   -1.65526625743617
N         0.05750806112197   -0.11091911234147   -0.58912979610592
N         2.62822224379434    0.98257103200111   -1.13995481029075
H         4.50422707352354   -1.48421858217576   -3.71514178765889
H         3.01780911748034   -2.17797561695524   -3.04966946853582
H         4.19233834583579   -1.40325743141960   -1.98544634808174
H         2.60927389567603    0.21810488848133   -4.15114731126135
H         5.14641017406883    3.17770911640670   -1.31155882127178
H         3.41868647024871    3.50959471356831   -0.76204373798559
H         5.14934631861225    5.14621921216015   -3.15460098944615
H         2.34335781247359    3.79750137702954   -4.26882174721217
H         1.36571313051616    2.95235262202555   -1.53126134297545
H        -0.83658803203175    3.70098266972133   -2.41445464219676
H        -0.15398707342645    3.56769854196844   -4.14968058476853
H         1.07205585061039    5.36075283688627   -3.40566059676762
H         1.07352024121267    1.23765587067274   -4.02450372957316
H        -0.12102638687493    1.29201665749880   -2.74620306263961
H         1.51753261019688   -1.48250450519990   -1.24247848356403
H         0.37394068299819   -1.30320390647838   -2.41439091163591
H        -0.63493331580089   -0.71437380996312   -0.15236452375656
H        -0.57087402025054    0.59354423876518   -0.97882510270498
H         2.10775978210162    1.50971787300082   -0.44175102900071
