35
 energy: -49.720230726575 gnorm: 0.101363464044 xtb: 6.4.1 (79825abcba525fcdf90b791dcacef51065a7a4e7)
C         3.38805794153547   -1.40728471763586   -2.48579262360901
C         2.84863117919554   -0.16465399145990   -3.17888143940304
N         3.91620933909996    0.87721433700567   -3.20475173474408
C         3.73047837256401    1.61685213404829   -2.14963641089416
C         4.45053561141554    2.92042361002279   -2.01044633026637
C         3.90796474573891    3.90527115479757   -3.05304612028806
N         4.63362668762193    4.87202231544251   -3.52043432597357
N         2.58206581056680    3.85314230938340   -3.44963711726931
C         1.49711189802691    3.20666712330971   -2.68618980171657
C         0.16192768081940    3.99092028121329   -2.76902638568693
O        -1.00725577976940    3.31405642558370   -2.30717002308560
C         1.26677095534162    1.77122705071263   -3.20842191717154
C         1.78441058332378    0.60754627890546   -2.31519856373412
C         0.76559069177280   -0.28941316962877   -1.54593506262083
N        -0.16738289683590    0.55610385665060   -0.78490732524430
N         2.73282982742267    1.14128823706913   -1.31761277137469
H         4.14006835881538   -1.24843786119524   -1.70379154253119
H         3.92999964003078   -1.97790654173431   -3.24725963814565
H         2.55465296018193   -1.94583921341199   -2.03000444566855
H         2.43662496138422   -0.42738776739199   -4.16271895839134
H         5.51777171985985    2.76065788198135   -2.18408137377771
H         4.39302814934937    3.38316555064460   -1.02326004067374
H         5.61736577481407    4.68944131583487   -3.28565963735315
H         2.41685231951196    4.62122060926777   -4.10436286988998
H         1.83252694636702    3.28738116865547   -1.64333704342884
H         0.01017900305317    4.37134139513698   -3.78434884784927
H         0.18771494220221    4.78703405252130   -2.01440250124236
H        -0.63882227967821    2.64094786670914   -1.70380538663447
H         1.78294795071653    1.66745481690281   -4.17219722591950
H         0.21558217062555    1.67435347171731   -3.51180700433291
H         1.41832036180120   -0.88302152258768   -0.90639111010018
H         0.24254828478059   -0.94476245555100   -2.25348340668887
H        -0.04521885435632    0.30582434852939    0.19327090711705
H        -1.13720928511482    0.30131675270261   -0.97859623453405
H         2.34798968119970    1.81640853809420   -0.66006876028516
