35
 energy: -49.731758670205 gnorm: 0.104529417649 xtb: 6.4.1 (79825abcba525fcdf90b791dcacef51065a7a4e7)
C         3.55307424961766   -1.48630195651476   -3.00135751376355
C         3.08527731518860   -0.07047155316505   -3.30479566466091
N         4.03842022922423    1.05348586165028   -3.07215798201693
C         3.66712637012220    1.64090837351042   -1.97129283974870
C         4.07841759241549    3.02165377669095   -1.56937671445576
C         3.52968326671567    3.97231244099798   -2.64010587698069
N         4.04884622457448    5.08467244131937   -3.05576182274850
N         2.41391473415442    3.51817786289955   -3.32335710375816
C         1.23646298740408    2.95996449481803   -2.63060013137456
C        -0.02716555459879    3.81253397258767   -2.91520516343665
O         0.16407934860748    5.20925576501788   -2.68928576217065
C         1.03715763540465    1.49649828464925   -3.08316567044466
C         1.89241607802459    0.39639645944339   -2.39160175488722
C         0.94473292540721   -0.67097279661043   -1.76158901128322
N         0.03240223921478   -0.00175834049928   -0.82121318211908
N         2.65276451802306    1.00233437109367   -1.28062631297766
H         3.76592058263188   -1.56451292843022   -1.92857740646297
H         4.54226354190822   -1.57390591513425   -3.46284659094380
H         2.99677356243233   -2.38628383895580   -3.27137567409518
H         2.77210617412704   -0.12625023077102   -4.35623609756713
H         5.15674037087800    3.19875491481636   -1.54652269008367
H         3.65286547205372    3.26774396439722   -0.59453364396804
H         5.01998904809713    5.16850396413051   -2.73010639288630
H         2.21915901888477    4.19502256876879   -4.06488057908419
H         1.43042607375550    3.01685198089703   -1.55092331734343
H        -0.85870296360188    3.52957136317440   -2.26167223269926
H        -0.26606081657801    3.69822743740321   -3.97999734945721
H         1.10463972578642    5.46731298953211   -2.72953380785317
H         1.31738102078452    1.44180609529741   -4.14361549665164
H        -0.00068105670856    1.14047761236599   -3.03251987991742
H         1.55690169496493   -1.47263849864992   -1.34924830916131
H         0.39047833677323   -1.16179217581967   -2.57126727476997
H         0.47807144254580    0.14215202610361    0.08159649019042
H        -0.74482597745350   -0.62894531234872   -0.60779367339102
H         2.20871961071921    1.45567927086276   -0.48466400648093
