35
 energy: -49.721693893201 gnorm: 0.122909733764 xtb: 6.4.1 (79825abcba525fcdf90b791dcacef51065a7a4e7)
C         3.54866739137962   -1.43438884786405   -2.81752280520529
C         3.02964556784178   -0.02166408920169   -3.04182067464973
N         4.12661538742848    0.96204427600759   -2.80760483252348
C         3.63087194853901    1.70869619690849   -1.86337087886108
C         4.04655696125119    3.13596768171173   -1.69827395482668
C         3.59266292501080    3.90392856299132   -2.94548623940448
N         4.24332007639065    4.89290761423426   -3.47294288909090
N         2.45043249471184    3.45320081650864   -3.58592671559960
C         1.31137461479004    2.93170461148765   -2.80586527909692
C         0.06759976431260    3.79398242072639   -3.14370095976998
O         0.25641469118427    5.08408174240085   -2.56194617718233
C         0.98352531547705    1.43915733278117   -3.03189404263272
C         1.77619991243538    0.39907045147327   -2.18937522859358
C         0.89740418147061   -0.74166119727087   -1.58875396112146
N        -0.01452808902511   -0.10509052904759   -0.62560324971669
N         2.52510762849223    1.20321148425789   -1.20344857496120
H         4.41395033998504   -1.61708235681997   -3.46574049889993
H         2.80514235087120   -2.11765972045595   -3.24114233916814
H         3.87395288667576   -1.62689404758609   -1.79308210127589
H         2.78107997921957    0.16577420518027   -4.09528944696834
H         5.13162894994663    3.24289799618471   -1.62177673678787
H         3.55554387611465    3.62995129683891   -0.85752408895493
H         5.08682521706646    5.16912400462833   -2.95486842851403
H         2.32416153595462    3.85467559953176   -4.51800999251896
H         1.40469179943068    3.12796640108680   -1.72914196110529
H        -0.83708943071030    3.40417186984934   -2.66598473253181
H        -0.22203792556607    3.84280904616676   -4.20088840634256
H         1.10266990207669    5.50583844141126   -2.80451712664243
H         1.10605755885719    1.26055230175673   -4.10853525591689
H        -0.02538941626009    1.26976916266958   -2.63211461548256
H         1.45530727954485   -1.56149884860034   -1.13703091719319
H         0.46431515874696   -1.10585671410909   -2.52868812814817
H         0.53112492865936   -0.23157305011208    0.22331458948179
H        -0.89359297476356   -0.61980567607445   -0.55274496588700
H         2.04512580146801    1.85446398657091   -0.58559656941586
