35
 energy: -49.724897178008 gnorm: 0.103614201759 xtb: 6.4.1 (79825abcba525fcdf90b791dcacef51065a7a4e7)
C         3.64281916674112   -1.40886587648291   -2.75514890693550
C         3.02944857367935   -0.13378176267288   -3.31498948171778
N         4.00256992056089    0.98969063470646   -3.18565804986685
C         3.73943285148489    1.66253826056166   -2.10266988880737
C         4.23787923680143    2.99841617623803   -1.65085542926477
C         3.60743251663660    3.93300182356527   -2.69028255902824
N         4.15518186865094    4.95466440573716   -3.26978320447763
N         2.38384784790074    3.56422081452826   -3.22399685360266
C         1.21502618489620    2.92104507402824   -2.59305481663088
C        -0.04241484675458    3.73230910276178   -2.99965604264105
O        -0.16647814617847    4.97260299798886   -2.30343387580758
C         1.10234049179398    1.50394597790634   -3.19754107688487
C         1.88495349499209    0.42699262274704   -2.39278021151267
C         0.93203324972442   -0.59570071301926   -1.69971606482139
N         0.14099363759967    0.26822679457930   -0.80955451841738
N         2.75529066713573    1.03027797197979   -1.36413209863752
H         3.74041525134529   -1.29055833561176   -1.66944359959102
H         4.60009835997616   -1.54330351822727   -3.26962451303913
H         2.99970477698442   -2.26988869872248   -2.94851707553685
H         2.68284848890493   -0.21459344928441   -4.35424511552902
H         5.32826362020952    3.06494404515458   -1.68695336305439
H         3.82927969870423    3.19637260562822   -0.65796386615884
H         5.11976089186181    5.23968309484676   -3.05871637582010
H         2.11727615340451    4.06239505338488   -4.07644482839829
H         1.22166250291860    2.88966774923118   -1.49508792353629
H        -0.94615504323181    3.14429586568454   -2.80959899449614
H        -0.04087937918414    3.85153309041354   -4.09039093760325
H         0.71780915580877    5.15684416944088   -1.93335493958561
H         1.37042259959328    1.63584763382864   -4.25433062236327
H         0.07091272354182    1.13417980243168   -3.27405646054572
H         1.46103757877627   -1.44531559772749   -1.26872613162942
H         0.23561101231071   -1.08873844324396   -2.38934681447349
H         0.12772766451200    0.03503014001166    0.18031409523861
H        -0.81753476739878    0.41513838161457   -1.12992206985033
H         2.30903856257121    1.35292640547541   -0.50797176144961
