35
 energy: -49.712730791731 gnorm: 0.121434638746 xtb: 6.4.1 (79825abcba525fcdf90b791dcacef51065a7a4e7)
C         3.79601732705294   -1.30661292302553   -2.55909456091224
C         3.03846896923261   -0.08734396138385   -3.06405805519242
N         4.01940837234752    1.03586201382078   -3.01880065633806
C         3.71798771661896    1.68050016545219   -1.92865586384179
C         4.22149897113194    3.04301751513098   -1.57203584164476
C         3.60374533969583    3.82945023019466   -2.73445840318529
N         4.23442564643796    4.69723340844566   -3.46167192483164
N         2.33477999141458    3.50321765273641   -3.18313319660964
C         1.07416304984250    2.92901578647196   -2.67416944494179
C        -0.04107305887846    3.79718727396959   -3.31225919332693
O         0.09305283738416    5.11907847522484   -2.78970789520040
C         0.98707644636241    1.45516188491976   -3.12852849098995
C         1.83106257535514    0.49576806262970   -2.24128409464713
C         0.82718477932964   -0.59328136144838   -1.75087886897245
N        -0.16586576305730   -0.03009937483049   -0.82288175386089
N         2.57307989595035    1.30114001314676   -1.25116124415629
H         4.70148408827102   -1.45431776042373   -3.15958678210210
H         3.11885680941904   -2.14439986773932   -2.75583996074173
H         3.94917126445876   -1.29373201866489   -1.47801842150584
H         2.72771720218929   -0.26004952048211   -4.10344275351894
H         5.30188024633009    3.20849332575792   -1.57985831838044
H         3.97946801890606    3.34896554330192   -0.55233450673344
H         5.22919148715844    4.75850161241734   -3.21090371675509
H         2.28256331020425    3.87104923716299   -4.13596001146329
H         0.93372889876604    3.16815912393349   -1.61132016582276
H        -1.00828289739255    3.50436855627147   -2.89108236109285
H        -0.06950275773225    3.76709382072915   -4.40871049780914
H         0.99133319998188    5.34876358313506   -3.09500185873245
H         1.13744407003698    1.23091791825456   -4.19303515043398
H        -0.07315732230286    1.20593401439152   -2.98635006219650
H         1.51074767514307   -1.31059616327398   -1.29739831773284
H         0.22954694704405   -0.97382266823259   -2.58855305551263
H         0.34270576113157    0.34537904235276   -0.02615877669928
H        -0.59000194482715   -0.83032079415854   -0.35091854924115
H         2.72014497543179    1.07875323562403   -0.26873085666001
