35
 energy: -49.718946240594 gnorm: 0.119980687948 xtb: 6.4.1 (79825abcba525fcdf90b791dcacef51065a7a4e7)
C         3.58033533350933   -1.36076251591957   -2.93198634327832
C         2.90183510510435   -0.02841249649818   -3.21476772838857
N         3.84262003420790    1.11180703350991   -3.01301254148271
C         3.61420875086302    1.67627768415249   -1.86234768610189
C         4.13321163137799    3.02353764450477   -1.47160278449321
C         3.66160237877180    3.85365184886243   -2.67152665890549
N         4.40820951778683    4.73609612486852   -3.25762791876633
N         2.37865986764090    3.80805038617863   -3.19113116279641
C         1.19410260927771    3.07732588055794   -2.70044519271436
C        -0.06580436561378    3.80687452111751   -3.23432252239522
O         0.05989095812695    5.22849595342856   -3.27480877651693
C         0.95339567432445    1.57078749165585   -2.94267178026907
C         1.78015297430013    0.46387705165695   -2.22770793829640
C         0.99337268754672   -0.77306672054016   -1.69362607657853
N         0.28891262964552   -0.30103269623528   -0.49136907916583
N         2.54155622512119    1.14996292064650   -1.16511290096467
H         3.90066914618912   -1.42709972824360   -1.88543806211287
H         4.47856655323286   -1.25653094252339   -3.54960964409830
H         3.02450991214401   -2.24896291230538   -3.23940433363648
H         2.46951378640528    0.09411629862568   -4.21716455611872
H         5.22458644658821    2.97661801113429   -1.50857182441494
H         3.75145390557837    3.26739017198026   -0.47823931672445
H         5.40664253128723    4.83272946450084   -3.03404108293765
H         2.42201731625833    3.95733797495305   -4.20194219017002
H         1.24356673671725    3.31444220006281   -1.62904936169609
H        -0.88491226679221    3.54532387895926   -2.55661971306305
H        -0.39646212036318    3.53037229104228   -4.24334744041638
H         0.87780030978502    5.45687253451164   -2.79341944353227
H         1.04162082865685    1.37441718013864   -4.01957717081069
H        -0.11462904461008    1.32621238039780   -2.86565835703719
H         1.64364393184333   -1.60417017068065   -1.42185830820765
H         0.30120982098072   -1.09692402448737   -2.48084124371278
H         0.97607020191518   -0.28943492043133    0.25834853642979
H        -0.42055575064584   -1.00023597442660   -0.26605933610102
H         2.00847932889464    1.79735364060636   -0.58807930358624
