35
 energy: -49.714716631946 gnorm: 0.113948286760 xtb: 6.4.1 (79825abcba525fcdf90b791dcacef51065a7a4e7)
C         3.53954174877580   -1.41239709713577   -2.64559131881482
C         2.89544929998839   -0.08370395661257   -3.01329216605856
N         3.91355852124777    1.00048898070531   -3.13102622098121
C         3.80635283348247    1.74726306326550   -2.07005315201107
C         4.30187265502948    3.15220306863638   -1.93679152406593
C         3.82263160360165    3.78598415029824   -3.24826847207995
N         4.42716731203066    4.48423421507309   -4.15745945697083
N         2.48321344367581    3.54330074509049   -3.50336378077689
C         1.29110771152361    3.04993500837864   -2.78685758051499
C         0.07497992768486    3.81221616076406   -3.37387758797422
O        -0.79797012594558    4.49336016477677   -2.47251916713514
C         0.99088162243407    1.53522763001645   -2.74446202302348
C         1.89693091377857    0.53707550723730   -1.96811240222856
C         0.95983629331199   -0.47098878646808   -1.23329498900170
N         0.04305596320027    0.21437757381601   -0.30901756310300
N         2.86765234389574    1.29927342971668   -1.15798204888862
H         4.20444366008781   -1.36072087734606   -1.77523926367881
H         4.13472456843015   -1.84636693596427   -3.45588118805512
H         2.77494168990506   -2.14369533914199   -2.37552225136223
H         2.55182733932729   -0.05394710942006   -4.05624609977841
H         5.36804809355461    3.38535756273886   -1.99659180051509
H         3.82438521457024    3.72278881156116   -1.13778484685276
H         5.44932557261048    4.38656252994237   -4.11444434159619
H         2.23644478497723    3.94998642656118   -4.40869111797202
H         1.30228897914145    3.26602324373850   -1.70994498464654
H        -0.54030586289578    3.17019099777915   -4.01251259936571
H         0.46317455622027    4.65640044251586   -3.95746747882620
H        -0.23233972636043    5.05357457570713   -1.90763924559481
H         0.94861312252948    1.13234393438112   -3.76523051569861
H         0.02522402850653    1.45432956891321   -2.22736841477990
H         1.59080913724370   -1.20749660574121   -0.73643196131799
H         0.43057212031799   -0.94151200631339   -2.07124967372899
H        -0.71183824716353   -0.45189860774699   -0.16546505670158
H         0.60975650361452    0.31189997074210    0.53498182564140
H         2.49138814013296    1.84851685050263   -0.38791036054205
