35
 energy: -49.721503948529 gnorm: 0.114903854815 xtb: 6.4.1 (79825abcba525fcdf90b791dcacef51065a7a4e7)
C         3.70233921941197   -1.36977181103380   -2.92882429253636
C         3.04736676176157   -0.01815930595428   -3.17303556645268
N         4.07943306357835    1.03600304165896   -2.95063301290171
C         3.70647446787815    1.66231978104493   -1.87199606669219
C         4.14397763512702    3.04533595482200   -1.50728768131893
C         3.66205030889908    3.76059827370834   -2.77514732625367
N         4.32575352626274    4.58859375427575   -3.51916772009128
N         2.35308884976801    3.60761868936341   -3.20085498086291
C         1.16545920954142    2.95835139966555   -2.61272675325197
C        -0.06118454105577    3.71423651009259   -3.18597596742619
O        -0.12982784597587    5.02655407885255   -2.62780336020760
C         1.02381706932924    1.49511499556891   -3.08722467467271
C         1.83093428366137    0.43497383662154   -2.28434597539411
C         0.94130721218300   -0.66672942912412   -1.62928098949855
N         0.14284076637867    0.04484665073637   -0.61902716073395
N         2.62295475429555    1.09362574236094   -1.22678360060171
H         4.28089141010052   -1.76602690257241   -3.77175782587690
H         2.96718887384825   -2.17593939246517   -2.83506995490191
H         4.33039217265458   -1.24006974292795   -2.04504008393863
H         2.75862944234989    0.11206903063393   -4.22488430058816
H         5.21973174927028    3.23832549214090   -1.49404862424842
H         3.65228695895797    3.32059094413702   -0.57216791756039
H         5.23193603813173    4.87130674147320   -3.12533502703084
H         2.25554140963047    4.10510592457113   -4.08905346624490
H         1.05346603358022    3.14787342886571   -1.53657675804138
H        -0.98010365398481    3.19740474386153   -2.89084855650333
H         0.02464955278916    3.81148087362503   -4.27551503323601
H         0.69731172520131    5.53914560553426   -2.70498701788658
H         1.32069458963650    1.52758974950982   -4.14404979659630
H        -0.01805576135504    1.15075962153388   -3.13565242975910
H         1.51381417846288   -1.31626509953806   -0.96762961156734
H         0.39259696782936   -1.20438870170630   -2.41255634086734
H        -0.53161223348414   -0.58592435772198   -0.19283750216414
H        -0.45976385721011    0.74787965201471   -1.04984887940885
H         2.42768378704128    1.61725144821943   -0.37593764092371
