35
 energy: -49.718701906909 gnorm: 0.106937604781 xtb: 6.4.1 (79825abcba525fcdf90b791dcacef51065a7a4e7)
C         3.62958208261289   -1.44253924102399   -2.60933360476763
C         2.90015090434339   -0.20729029797357   -3.11685171815789
N         3.88573345156605    0.90747140089936   -3.22555028247414
C         3.79629694677809    1.65210504173006   -2.16143082735367
C         4.44535690891989    2.98173742160686   -1.94244737880473
C         3.57146754164729    3.98198107852199   -2.70870591339013
N         3.81026698866424    5.24570664389241   -2.86875996513038
N         2.48408778717659    3.49617327491919   -3.41553395699933
C         1.31672222498088    2.89279925817209   -2.74389088545487
C         0.04844582041734    3.65644517144121   -3.20535779948507
O         0.15183517727341    5.07074723611763   -3.37120791516993
C         1.06712258289741    1.38714179978175   -2.98256882015548
C         1.87839226593876    0.40525937752976   -2.08942825417901
C         0.94473059458639   -0.61585356112964   -1.36838682705324
N        -0.26621250922002    0.02190029943756   -0.82858245235397
N         2.83913223945134    1.18132256805771   -1.28056391793516
H         4.15223749231199   -1.74347597963967   -3.52505522577609
H         3.02235492544775   -2.32309873768184   -2.37474412269345
H         4.38926156334400   -1.16983101258556   -1.87389837897025
H         2.42761361567701   -0.38324876164449   -4.09279307655892
H         5.48895962760323    2.97523449893429   -2.26728300549613
H         4.52636437040976    3.28889123475658   -0.89790523213188
H         4.64677233267068    5.70463654156997   -2.48687031208724
H         2.14005577180602    4.27926991015393   -3.97616506782842
H         1.31096870278356    3.17024507170934   -1.68108770651961
H        -0.67096971010856    3.29696904019365   -2.46249455295612
H        -0.28869318634883    3.28064762282239   -4.17954095496375
H         0.42466915215864    5.51599017406970   -2.54647304451023
H         1.35377673039037    1.17492589295840   -4.02125260927576
H         0.03420425564707    1.15696408425860   -2.68842120910066
H         1.56102167760580   -1.10543910771086   -0.61477244629328
H         0.48539642012140   -1.32969453216489   -2.06345795525988
H        -0.10049868723564    0.33664990339288    0.12423870121447
H        -0.96513275678703   -0.71252401217423   -0.70559261404005
H         2.46397133702041    1.79520492403803   -0.56038602007071
