35
 energy: -49.725027028123 gnorm: 0.118747235917 xtb: 6.4.1 (79825abcba525fcdf90b791dcacef51065a7a4e7)
C         3.69267178836721   -1.39238074803166   -2.67878988046890
C         3.00272456091091   -0.10502232139659   -3.10559845431558
N         4.04664506658232    0.94293377304166   -2.91091919861516
C         3.74704332243294    1.62498338845718   -1.84326966167143
C         4.22959760504313    3.03620537525957   -1.73035919722626
C         3.67715770763442    3.86345472989835   -2.89731712667395
N         4.39467135550088    4.61164248321041   -3.67515646716240
N         2.32547017017775    3.84410363776804   -3.19827584162165
C         1.23467970827396    3.02519216101507   -2.63483363915028
C        -0.09895107147429    3.69410476970434   -3.05746431468616
O        -0.35186196145106    4.97006325260782   -2.46889657611284
C         1.20065621681153    1.58576159956848   -3.19443491440162
C         1.81561742908478    0.49804242523883   -2.26780587168298
C         0.92924659936955   -0.63740479885245   -1.66830366107033
N         0.01484089536221    0.01245789652831   -0.71644092864453
N         2.65554481034694    1.07194792355964   -1.19789399994553
H         4.59384306321705   -1.52917020058068   -3.28826232692221
H         2.99093939988818   -2.23187637550685   -2.72307112128005
H         3.99571343567667   -1.32636668457107   -1.63181539489753
H         2.73748857330115   -0.26575299475463   -4.15941530167473
H         5.32147547983977    3.06588276321186   -1.77022253279455
H         3.94154886849503    3.48324970152106   -0.77686389986620
H         5.39482281333037    4.67657287735474   -3.44782704997985
H         2.12329340939631    4.31849003770400   -4.08144495632955
H         1.27829801605891    2.97606719402280   -1.53836473653266
H        -0.97622377792768    3.18045436550555   -2.65103664211213
H        -0.11347172486910    3.75272554762408   -4.15303361030101
H         0.43533477919181    5.54427096842472   -2.52783764771371
H         1.65279105938142    1.47144295481646   -4.18870627180264
H         0.23362413273663    1.18732991919587   -3.52988388736912
H         1.52744055282445   -1.29349236959621   -1.03651536470562
H         0.41879356796377   -1.25796052321892   -2.41531704455535
H        -0.59915062234997   -0.66367638612151   -0.26894412863529
H        -0.58296441075596    0.73773986156232   -1.11592806320036
H         2.15165137896334    1.57413922738207   -0.46978083448673
