35
 energy: -49.716603785150 gnorm: 0.119744819896 xtb: 6.4.1 (79825abcba525fcdf90b791dcacef51065a7a4e7)
C         3.65948756514850   -1.50110701294954   -2.71090661109851
C         3.11699094897367   -0.13556224055857   -3.10646864191038
N         4.13683757195039    0.92960955930498   -2.88018587121770
C         3.64487926831166    1.72251898326941   -1.97238629127191
C         4.16239352523837    3.10788790463057   -1.74858536988603
C         3.53194314242589    3.98794944506120   -2.83456242708204
N         4.16402627877363    5.01735682616609   -3.30406871383701
N         2.38368869798326    3.55432153199438   -3.47603604150332
C         1.20975208917545    2.94077422352547   -2.82539058920876
C        -0.02163611866889    3.86027248135385   -3.03236359173568
O         0.01370652504279    5.09988620441852   -2.32486472092878
C         1.09010426586571    1.44544206673258   -3.19408782113682
C         1.88457765907129    0.43787902509362   -2.31455362258999
C         0.99490126802274   -0.66781161226574   -1.66630931810937
N        -0.07592274537283   -0.01975062193925   -0.89309857157959
N         2.59231806404966    1.18320330652969   -1.25476488525693
H         3.86327577036721   -1.60436760640901   -1.63848631489925
H         4.57739773856068   -1.88862952781340   -3.16522949579629
H         2.90520560233107   -2.22474495190068   -3.02674599918424
H         2.87065311824379   -0.22855115032274   -4.17295124899145
H         5.25242539830015    3.15356032898674   -1.68216500835935
H         3.82036559919175    3.43210822029038   -0.76376453343635
H         5.03339226995624    5.17559794051148   -2.77932107011272
H         2.19830114264639    4.23059346304894   -4.22047766133022
H         1.49439062227484    2.95390119403945   -1.76455673249147
H        -0.94006656465942    3.33966958881427   -2.74238820076685
H        -0.16835855088967    4.04606016952604   -4.10375277356049
H         0.69681253732379    4.98910051067339   -1.63641721739130
H         1.51316591706567    1.41113680639189   -4.20696105791785
H         0.03636689362967    1.13591155098880   -3.17817337668823
H         1.73326803896597   -1.20868277435909   -1.07494119065277
H         0.55242154153953   -1.26222268479955   -2.47536300834703
H        -0.19904046366010   -0.56217384238118   -0.04162008351458
H        -0.84518614936783    0.24595962488733   -1.51004829780373
H         2.06834554288226    1.70609512398281   -0.55598708360997
