35
 energy: -49.723296271000 gnorm: 0.113365883950 xtb: 6.4.1 (79825abcba525fcdf90b791dcacef51065a7a4e7)
C         3.61866424746384   -1.45903711272901   -2.80522592949690
C         3.01434340561330   -0.11730864095627   -3.19258292906732
N         4.10477094518937    0.89212217018883   -3.05879501158142
C         3.81824672874608    1.63433201019430   -2.02833064368572
C         4.45528988411072    2.94955984109110   -1.70972952616443
C         3.67225786892686    3.87370940411122   -2.65001172221386
N         4.11464836660499    4.93421598181734   -3.24939577647965
N         2.38134113721348    3.65092132101375   -3.09935488661174
C         1.20156174306517    2.95508873441833   -2.54995108706497
C         0.03244905778669    3.75476740201561   -3.18107817086750
O         0.06026508621532    5.13571809064477   -2.81962634669068
C         0.97113896597519    1.48888331808068   -2.97822500516893
C         1.91512247054254    0.49216964043506   -2.24650876296257
C         0.90049370258679   -0.56627232151030   -1.71309935587646
N        -0.29890183819243   -0.09881053425925   -1.00075690920655
N         2.73153871090543    1.23893732527898   -1.26908385798892
H         3.92299807297292   -1.38240712774702   -1.75461351503314
H         4.54854352505218   -1.62873950217381   -3.35809815857578
H         2.99581528829385   -2.33400448412882   -3.00230187905489
H         2.72092976275868   -0.05132516571514   -4.24911925910060
H         5.47335810812086    2.97214066501102   -2.10683698328574
H         4.36200797064433    3.30835961846914   -0.68282389018112
H         5.08853940199487    5.20005455184889   -3.05687651694753
H         2.19441100330763    4.49010761117583   -3.65318617475306
H         1.06465744262971    3.02008943772427   -1.46202094555985
H        -0.91927262641237    3.25748092551771   -2.96763125041621
H         0.09229291995743    3.70910342835954   -4.27572553242612
H        -0.27365656516417    5.35992322052959   -1.93019076751392
H         1.19437981933031    1.49498552794353   -4.05349078304043
H        -0.04128528767480    1.14458214024063   -2.72746876003880
H         1.46283083603424   -1.23022943354695   -1.05706486550377
H         0.62377420831377   -1.12440047060538   -2.61620510512726
H        -0.09436664385401    0.44180839751890   -0.16392176580789
H        -0.82087645392516   -0.91348534629650   -0.67388914893576
H         2.28913676773569    1.70634454688123   -0.48037322605529
