35
 energy: -49.721968339443 gnorm: 0.121365933777 xtb: 6.4.1 (79825abcba525fcdf90b791dcacef51065a7a4e7)
C         3.71778708149694   -1.34179591205200   -2.81153554502240
C         3.06461345722431    0.01027058721854   -3.05804073343904
N         4.02411743016128    1.14258475427216   -2.90605806349910
C         3.67645466186945    1.79533802206957   -1.83467009770209
C         4.00958010119327    3.24617987528887   -1.68892969926132
C         3.54660862154731    3.86064809857812   -3.01535662291417
N         4.29835460276269    4.53426250952648   -3.82823200794842
N         2.25949282437158    3.49141684983877   -3.36892561519337
C         1.14217975340276    2.92397240642561   -2.58948654194820
C        -0.00807008247361    3.84277605483832   -3.07667952928734
O         0.22072753605166    5.21785524704622   -2.76804573283238
C         0.90921916033067    1.43656666253176   -2.93535506541909
C         1.84709625552135    0.46017570584135   -2.16919652586993
C         1.08092030640336   -0.74717186505894   -1.54503086004126
N        -0.12920055674434   -0.24674891407582   -0.87444430118617
N         2.64309659343318    1.17734014449575   -1.15351175929897
H         4.44862321332515   -1.50266659436734   -3.61295731089002
H         2.96517156640228   -2.13712239506788   -2.79858395167330
H         4.26926059672203   -1.40273155091117   -1.87105084749085
H         2.76196275811774    0.04149130073939   -4.11357009354570
H         5.07103670410415    3.50489183570525   -1.72125818243102
H         3.48864115874049    3.59765758481593   -0.79614751628510
H         5.22048233829335    4.64361170567937   -3.38786765976405
H         2.10594715106959    3.64830887279183   -4.36778206399388
H         1.30423407837092    3.14444638954868   -1.52567758823972
H        -0.86216624053408    3.52633866486958   -2.46921370243995
H        -0.19773162087810    3.61072563246453   -4.13218908892622
H         1.14813257215320    5.45399874053365   -2.57563105478578
H         1.21270508246516    1.26951495477902   -3.97749720038222
H        -0.12395727060405    1.28234443954570   -2.59596320749546
H         1.67267392501918   -1.20316751416455   -0.75172198510093
H         0.73900139903994   -1.45360306291693   -2.31166448630556
H         0.15439365475678    0.32054803537475   -0.07936881308440
H        -0.66473394410444   -1.07079506912401   -0.59669079317897
H         2.04981543161091    1.59773867434475   -0.44109614574836
