35
 energy: -49.723181115600 gnorm: 0.093648916424 xtb: 6.4.1 (79825abcba525fcdf90b791dcacef51065a7a4e7)
C         3.38200986611936   -1.54517072503339   -2.57549448255760
C         2.79603903125284   -0.24123010666069   -3.09689786709577
N         3.92634565637143    0.69590282702356   -3.36160675861468
C         3.96354685441101    1.52285128846720   -2.35681786259617
C         4.68069035808359    2.83471796776625   -2.31362140768124
C         3.77201569052058    3.93086596539945   -2.88291229041937
N         4.20583069794004    5.05482927333814   -3.36056890724650
N         2.50817242512056    3.63140581025000   -3.36357190161311
C         1.29863815857694    3.04113069333034   -2.75817194651039
C         0.07623250448639    3.77170504145166   -3.37186354403158
O        -1.13210148308927    3.50438150573147   -2.65988527112413
C         0.99416904471828    1.53383967831245   -2.90529057779781
C         1.87927194653800    0.54741689820442   -2.09072649582370
C         1.10453823947978   -0.12979482324078   -0.91792279371394
N         0.33244346593738    0.87658979704497   -0.17256272609266
N         2.96826276752913    1.28922028998685   -1.42485588247396
H         3.72510912665362   -1.42849816165770   -1.54062826302784
H         4.27049574375508   -1.76884464421029   -3.17524851954435
H         2.68397113298379   -2.38485739931474   -2.57150935930737
H         2.19466515014272   -0.51580414881020   -3.97420794396379
H         5.58519126451914    2.85032125905334   -2.92705582607480
H         4.95549734195587    3.14128683714797   -1.30244849930505
H         5.19192152253210    5.23747822096638   -3.13593183285879
H         2.35721072765608    4.32994120729310   -4.09512126177984
H         1.30535998456172    3.20229703854028   -1.67164531766721
H        -0.17736273053563    3.44446387777016   -4.38538723449382
H         0.35169707673996    4.83375477421827   -3.36243120932568
H        -1.88790901719257    3.83568197163879   -3.18128936926459
H         1.15776003672518    1.27013886781605   -3.95874683543157
H        -0.05381003361065    1.49039070455563   -2.57928917673441
H         1.85540430062552   -0.56374837362424   -0.25812901015033
H         0.53620268555026   -0.99549560899107   -1.28019003206933
H        -0.38169219440772    1.31811926447700   -0.74654750367015
H        -0.06555136600586    0.54315040296837    0.70687650881326
H         2.82733894830618    2.08517276966508   -0.80610422623985
