35
 energy: -49.730207154932 gnorm: 0.117851865362 xtb: 6.4.1 (79825abcba525fcdf90b791dcacef51065a7a4e7)
C         3.53959423308118   -1.43785627855192   -2.80966725298904
C         2.98515960756238   -0.07706326672205   -3.20505197518001
N         4.02864045437895    0.97911512035815   -3.05836541919337
C         3.77697195643349    1.63886032593738   -1.96464349316472
C         4.24391726927498    3.02595700644754   -1.65629333657947
C         3.64528196097032    3.86433503436648   -2.79211033423227
N         4.19007262592421    4.87318608747785   -3.39631849542070
N         2.40249101930329    3.54156129566443   -3.31104930101664
C         1.22533072941457    2.94548230794910   -2.65007237642063
C        -0.00535444844591    3.70901043476089   -3.20421193817710
O         0.10820920821987    5.11207087158266   -2.96552663712041
C         0.94427273534269    1.47908539228402   -3.04625172275762
C         1.86304213122860    0.49735530987129   -2.26393428684412
C         0.93049333517128   -0.57771997501912   -1.62451075117394
N         0.13740795898678    0.06463371844723   -0.56484132091598
N         2.71459565131129    1.13157972672425   -1.23817946958522
H         4.55720439092269   -1.45354045843542   -3.21771291163683
H         2.90820317489605   -2.21239784684534   -3.25752077064078
H         3.69809497487448   -1.60107480195208   -1.74168556117639
H         2.74820554738313   -0.17398296591310   -4.27330932386097
H         5.33041077689810    3.05810207967044   -1.77103520947413
H         3.86204400670289    3.25070981218957   -0.65847923097007
H         5.13953340161803    4.99157812656441   -3.02121167076475
H         2.14005350598710    4.10140962700387   -4.12566700386187
H         1.22534490482385    3.01248839368339   -1.55368281220655
H        -0.96339189478569    3.30628227231861   -2.85982570489194
H        -0.03740079530706    3.66054579544642   -4.29990511923215
H        -0.17442734565788    5.26424558071889   -2.04366618216664
H         1.20093918030457    1.37567534119363   -4.10903059118275
H        -0.09656200513386    1.26246413072801   -2.77027498782642
H         1.51397045715506   -1.35006071560416   -1.12402339398633
H         0.31753239770091   -0.99734743517688   -2.43189690182823
H         0.63945010721588    0.11642130534954    0.31814693827581
H        -0.77595866247241   -0.35503031804709   -0.38417976955219
H         2.17156054456738    1.57773517759401   -0.50176133445933
