35
 energy: -49.719688665240 gnorm: 0.114953836280 xtb: 6.4.1 (79825abcba525fcdf90b791dcacef51065a7a4e7)
C         3.68877988064001   -1.42747394461368   -2.54228068043897
C         3.03288596964795   -0.19256963518115   -3.14252977355278
N         4.03920016154315    0.90269128856396   -3.02583675803767
C         3.67395617292707    1.61913688044487   -2.00205408620972
C         4.15293837316049    2.98674101254237   -1.63139262515123
C         3.68451415477953    3.89588496291777   -2.77391537012636
N         4.20023220574446    5.03868783221100   -3.10206366368874
N         2.50804525315037    3.51317245937144   -3.39637976076369
C         1.32893599703725    2.90553601946185   -2.74955188683962
C         0.06938218845682    3.74606576731502   -3.08371619584305
O         0.08698409102281    5.15783172372425   -2.87145924833243
C         0.99411377767338    1.44849575969938   -3.13839544053424
C         1.78148651486738    0.35447359496411   -2.36179298741869
C         0.80553925977692   -0.64083283858490   -1.66094449118034
N        -0.11999902469973    0.07873248402713   -0.77206508234530
N         2.60849460212731    1.03184369487982   -1.34356691870666
H         4.66496471233947   -1.36858867178125   -3.03813689620704
H         3.18508744230659   -2.38873694561013   -2.68860036102142
H         3.90766402186340   -1.27082106101800   -1.48402869038514
H         2.67342798053522   -0.31464330389086   -4.17335584772664
H         5.23478301769074    3.01215618222217   -1.47766114022094
H         3.72606397406189    3.28632601828756   -0.67222576312874
H         5.02453215985754    5.31181111382317   -2.55239938278139
H         2.30689682641285    4.07365707332157   -4.22782543063569
H         1.38173479820924    2.95678514910868   -1.65358395787330
H        -0.82633402145517    3.47278818942984   -2.51658355661913
H        -0.14055366297390    3.61127855238156   -4.15220984503772
H         0.84821469238479    5.56204374482054   -3.32972540824697
H         1.27187755244942    1.33097671816928   -4.19438160388516
H        -0.10416034387867    1.44015280307774   -3.12618002444399
H         1.41309205656217   -1.39512648501070   -1.16158084416335
H         0.17779442399333   -1.11596522738286   -2.42505596325252
H         0.21751157242934    0.17334064063319    0.18267699274632
H        -1.07353280721941   -0.21301773112731   -0.99263303696314
H         2.23971829803327    1.69109475768945   -0.66118464860236
