35
 energy: -49.730298089737 gnorm: 0.105053070196 xtb: 6.4.1 (79825abcba525fcdf90b791dcacef51065a7a4e7)
C         3.61211587143888   -1.53583145160759   -2.62050418686298
C         3.09443799582991   -0.18823877264877   -3.10163623218999
N         4.12202265467215    0.88294010583152   -2.95154429239886
C         3.84522814679773    1.59687769967411   -1.89868802066775
C         4.27494744177737    3.02304755110441   -1.76254180100856
C         3.62000120469379    3.92715146412189   -2.81371433564185
N         4.28085506196390    4.85745710960767   -3.42808261650866
N         2.28655548286755    3.81277781975277   -3.16987582006724
C         1.19800346933400    2.95067100245629   -2.67014256996707
C        -0.13838191764125    3.66471993058561   -3.00005175829699
O        -0.24313315517169    4.98602409443292   -2.46936499023001
C         1.20174774446850    1.50825626136510   -3.22304152423808
C         1.89731510447193    0.45731390276967   -2.31108871651047
C         0.89065145490680   -0.55580967608066   -1.68299199484527
N        -0.06112819196110    0.15087557337769   -0.81166344244360
N         2.70035312182506    1.13528905778305   -1.27424900604408
H         4.40744667855017   -1.76254595819630   -3.34045357870598
H         2.90057179006405   -2.36739850394234   -2.58385260022111
H         4.04023970205413   -1.45104843478367   -1.61956987589439
H         2.87762030226284   -0.22554974730104   -4.17788546409576
H         5.36239883176700    2.97741975314039   -1.86271521487418
H         4.04185386322540    3.40796859343576   -0.76781713055988
H         5.27993833062658    4.62508787126518   -3.36456310416998
H         2.06809677539649    4.31855527946603   -4.03148509711650
H         1.23949517731753    2.97663822285705   -1.57279848821259
H        -0.86472013164799    2.99229612786068   -2.53217716918094
H        -0.28353164312490    3.67873358586831   -4.08755095765539
H         0.56577680419428    5.49352857403010   -2.67177828479992
H         1.64458702143519    1.63158071986079   -4.22041541117518
H         0.14890375579277    1.21569538620572   -3.33418355004515
H         1.43470071977244   -1.27312077009133   -1.06905506131581
H         0.43785063786353   -1.02854555176542   -2.56343104942564
H        -0.70846214068551   -0.53612337235930   -0.43299769572339
H        -0.51673327389259    0.94149077648055   -1.27029913234343
H         2.19725310386067    1.50934187970971   -0.47223383500983
