35
 energy: -49.716679302781 gnorm: 0.117751261933 xtb: 6.4.1 (79825abcba525fcdf90b791dcacef51065a7a4e7)
C         3.81976373347873   -1.43033861573942   -2.71349225964479
C         2.98132502345242   -0.26661364432907   -3.22167447462256
N         3.92633832223629    0.88730178008611   -3.25788323806147
C         3.70148754572619    1.53129671684964   -2.14903651278465
C         4.16113711335377    2.91786084440374   -1.82760671800352
C         3.56822393739551    3.97166420362078   -2.77062030096556
N         4.12743369405261    5.08252776388365   -3.13519045398942
N         2.33479802282686    3.67576305587215   -3.32659950096580
C         1.23526839879422    2.96067879873066   -2.65014100338089
C        -0.06219423627279    3.76490546779234   -2.92298163904588
O         0.09467865293437    4.90016514708164   -2.07149921112201
C         1.12565190547812    1.49701192699833   -3.13173736137481
C         1.86545315416093    0.38961137873486   -2.32780338853001
C         0.92697056193117   -0.62990434580273   -1.61077153266381
N        -0.06674952048251    0.18913734283014   -0.89929904658319
N         2.71248236439765    1.04602413761905   -1.31231297941343
H         3.79758384334535   -1.72145173315630   -1.65659165849864
H         4.81043174189891   -1.06409552418433   -3.00260293161154
H         3.61284526260524   -2.32243929119929   -3.30820967009102
H         2.65115326446924   -0.45319849785004   -4.25263864578700
H         5.24054560869872    2.98571638679858   -1.98553096049224
H         3.97440948810439    3.14784546950314   -0.77679091273680
H         5.07557976986012    5.08981019340095   -2.73875186605809
H         2.07905379329303    4.34950738002353   -4.05225029251037
H         1.31205984150183    3.13583977578409   -1.56848412997008
H        -1.02726739756103    3.28372566586937   -2.73396475785187
H        -0.14366958883514    4.15713202624347   -3.94447046492441
H         0.72155947940640    5.51263590077899   -2.50134484331572
H         1.55457524771471    1.42463319875050   -4.14013029221278
H         0.04949510171309    1.27859846302804   -3.15637408688985
H         1.48803934276211   -1.09333130792521   -0.79967311694146
H         0.55611592406002   -1.27295937023387   -2.41862534739374
H        -0.60695743954576   -0.43449703040842   -0.30461247889547
H        -0.73613890083468    0.68284226563603   -1.49189367465175
H         2.16416791804229    1.67398566330187   -0.72813057554098
