35
 energy: -49.716885768602 gnorm: 0.107079816984 xtb: 6.4.1 (79825abcba525fcdf90b791dcacef51065a7a4e7)
C         3.49584840520506   -1.48671416477091   -2.38059413254471
C         2.88570595157161   -0.28829429590414   -3.09263379527614
N         3.84273057609191    0.81981261334229   -3.37913855082709
C         3.85835273698552    1.60164464459937   -2.33831048606710
C         4.57780341639877    2.90950165222690   -2.24314889433438
C         3.74881314649385    3.81986572094563   -3.15711530164926
N         4.34082257258447    4.71898086781363   -3.87875344467167
N         2.36703474611366    3.87914621992260   -3.08511443204759
C         1.34308189879581    2.97808121614711   -2.52163468789693
C         0.03167581573378    3.69434314472783   -2.93614018098788
O        -1.15030428045918    3.15237791716917   -2.34652784234574
C         1.32739629760594    1.55616797730767   -3.12511483945094
C         1.94727030657306    0.53143434757002   -2.13232635543254
C         0.84059361116020   -0.00703109904631   -1.17335905826584
N         0.40160186934570    1.21265442752070   -0.47754624617554
N         2.97561852188777    1.23325456028590   -1.33891263234113
H         3.71065789257476   -1.39980864210036   -1.30887495265236
H         4.46578113561869   -1.71181532417980   -2.83633754161175
H         2.78579004944097   -2.30748502082331   -2.50101011257152
H         2.40243736922479   -0.53566974602708   -4.04760568144180
H         5.59148163522957    2.82358567219680   -2.64282633537309
H         4.60568886042348    3.18306603472178   -1.18657001250494
H         5.35967705130458    4.65055904495097   -3.99473434091621
H         2.08075462537488    4.56052161776563   -3.79199268251635
H         1.31341908278950    2.99768645424749   -1.42377511190587
H         0.09151727422300    3.66691572845453   -4.02897792763685
H        -0.01020762204904    4.76486507580617   -2.69918467920434
H        -1.93663754451075    3.30857225272858   -2.90343949501666
H         1.91495197169962    1.50967834698758   -4.05176864524416
H         0.30070469925585    1.25848438651395   -3.37753063414475
H         1.33827126983464   -0.74414375687216   -0.54373595290803
H        -0.00171510190739   -0.45978294352774   -1.71114388583789
H        -0.31972473803126    1.65679821995018   -1.04041457929962
H        -0.05371833055270    0.99488987557591    0.41029225566906
H         2.58310106867528    1.88169544800086   -0.65942167297300
