35
 energy: -49.721285108294 gnorm: 0.112028063812 xtb: 6.4.1 (79825abcba525fcdf90b791dcacef51065a7a4e7)
C         3.41747660482900   -1.39759429762597   -3.10516485589404
C         3.00782406035782    0.06570405673575   -3.18533421101295
N         4.15711698792567    0.98728675173775   -2.94934041243936
C         3.82376583327328    1.69234643113148   -1.90694112487686
C         4.28524567882092    3.09491620904575   -1.66821677598453
C         3.92536466564365    3.71834447421971   -3.02215364492140
N         4.65867539167898    4.36674984057339   -3.87154793843503
N         2.61825930047328    3.53141811725359   -3.43993820489860
C         1.40022299803180    3.16050447510416   -2.69380310337619
C         0.20773774906179    4.05326035770163   -3.12461359712205
O        -0.80729259119422    3.69019535176529   -2.18848156845548
C         0.93703366267677    1.69077333540291   -2.80158771522556
C         1.85409357057081    0.56649246958209   -2.24038782758382
C         0.83018225075054   -0.37798563503115   -1.53763379145227
N         0.07242133226353    0.36951134939446   -0.52198197794643
N         2.70827603772448    1.22730375202710   -1.23378080844563
H         3.62385645500945   -1.49539325923104   -2.03272819066205
H         4.34883390141592   -1.61902711742331   -3.63684442455881
H         2.60317594053889   -1.96193239436053   -3.56427769853123
H         2.71302185191514    0.22818751664604   -4.23099437855934
H         5.32419997416948    3.25420658061719   -1.36843739527388
H         3.68316221823841    3.50234017038784   -0.85367689066300
H         5.64520769365178    4.27341904857018   -3.59907601651564
H         2.38484268335814    3.96405039751280   -4.33673895373291
H         1.62057875078109    3.33150479202753   -1.63137093378542
H        -0.05374672432761    3.78125902450809   -4.15236295199227
H         0.37519982094216    5.13736271494184   -3.10016252660633
H        -1.64129062006082    4.08311613965871   -2.50930520267947
H         0.74202819149693    1.48225069314612   -3.86204109599797
H        -0.01737811610078    1.64513052548279   -2.25988691405679
H         1.35041985885247   -1.23319719105283   -1.10704190606548
H         0.11527554358844   -0.72531382697218   -2.29390902345277
H         0.58247310111190    0.76516612934051    0.26395759996653
H        -0.72261667605752   -0.18736934676142   -0.20450199690886
H         2.27198769469031    1.68364491741153   -0.43524546284615
