35
 energy: -49.707199170634 gnorm: 0.115697741204 xtb: 6.4.1 (79825abcba525fcdf90b791dcacef51065a7a4e7)
C         3.56205635141212   -1.45115429769578   -2.53736748979439
C         2.97966207697914   -0.11997644416737   -2.98932641449708
N         4.02210099977539    0.94558928074637   -3.05074930466571
C         3.91388787633250    1.62811382722806   -1.94744582867796
C         4.44500348612989    3.02304029592298   -1.85126241848987
C         3.72188283263212    3.93646286634890   -2.84829696583911
N         4.35254973486910    4.88922028590306   -3.45998099168623
N         2.44457223598774    3.62233302524351   -3.28166735846298
C         1.30754513715717    2.98467674433071   -2.58995151715909
C         0.02085515501210    3.74805652657106   -2.99776523751005
O        -0.16345405540529    4.96129716456693   -2.26802334942588
C         1.15291791230981    1.52961121374050   -3.08507399087318
C         1.86016881716216    0.54711402631001   -2.10811590142256
C         0.93365548021917   -0.55468623704639   -1.50652989650533
N        -0.50555759174653   -0.24957548405069   -1.49786345238497
N         2.77128814104486    1.31251908776221   -1.23428893588055
H         4.27329946089504   -1.78216158298052   -3.30342564546302
H         2.81415254392072   -2.24980352403231   -2.58142865389880
H         3.93942830478580   -1.39636352691765   -1.51416856257956
H         2.55670173513623   -0.25613594292757   -3.99395548285137
H         5.48309495266744    2.97344349159132   -2.18974934632457
H         4.29702894725293    3.57001483002736   -0.91804412651347
H         5.35330927619218    4.87047830732777   -3.22690022836402
H         2.17273866497034    4.31471016810840   -3.98354056473875
H         1.29773512919607    3.06280322769846   -1.49434214836857
H        -0.85586243179876    3.10209307178325   -2.88495973768945
H         0.14852374937241    3.98417868577945   -4.06165733174434
H        -0.55036232699342    5.62978027059533   -2.86493170648099
H         1.51157563195035    1.46190601384612   -4.12085912516227
H         0.16271738506389    1.08324459033555   -3.24842825890566
H         1.31050267725473   -0.87010206702382   -0.53393420094148
H         1.07327795740493   -1.42202916044350   -2.16372280337312
H        -0.83697801405399    0.46419404836177   -0.85358859848064
H        -0.91070270622658   -1.14637361935593   -1.22472315124070
H         2.36199172854441    1.67651592332222   -0.37624686027720
