35
 energy: -49.727783200351 gnorm: 0.106326329237 xtb: 6.4.1 (79825abcba525fcdf90b791dcacef51065a7a4e7)
C         3.50782049267560   -1.40871427091849   -2.99122143326296
C         3.01342851057045    0.01722416788134   -3.18554225112102
N         4.14916531122436    0.96882778049040   -3.01108744556552
C         3.82698058294427    1.63114321566207   -1.93760540597581
C         4.29452264266992    3.01951653632458   -1.63597834243021
C         3.62060009773643    3.90663762734348   -2.68962286177526
N         4.15140271150027    4.97951299074773   -3.18644460310294
N         2.37312289506312    3.51915878166777   -3.14969960657285
C         1.15729272233265    2.97421037428131   -2.51511690548599
C         0.00686421667355    3.76095021371237   -3.19495992866990
O         0.05834062922860    5.17840982143960   -3.03185137346652
C         0.88065943174938    1.50392509095089   -2.89983337476967
C         1.83774020017004    0.46848337230403   -2.24271196905846
C         1.06065660545494   -0.69170280742301   -1.54671939215328
N        -0.11806452584034   -0.16014737401764   -0.84488800921004
N         2.68687576396298    1.20113768567915   -1.28263728450628
H         3.95020403405982   -1.46116731142196   -1.98931167489628
H         4.35633805229272   -1.53208843169761   -3.67235200103938
H         2.72041032339017   -2.15849056835902   -3.09205988688544
H         2.64591052605720    0.09491776810149   -4.21782547669006
H         5.34714569336046    3.16752525929517   -1.89042928027613
H         4.09446020584330    3.42582846834127   -0.64257025186474
H         5.12132812473290    5.23767426263537   -2.96554868467749
H         2.16610946495559    3.66919682489699   -4.13992161263095
H         1.06340098332642    3.22807881233910   -1.45055359682994
H        -0.97957830982091    3.44204214931561   -2.84302756639150
H         0.03051677130452    3.54717880671908   -4.27090680407200
H         0.98788259071017    5.40181924239664   -2.83460220595295
H         0.84792336905879    1.35327822272464   -3.98717144544448
H        -0.12774494987606    1.30338416197723   -2.51340250209707
H         1.65975749904914   -1.28086719987961   -0.85288454842214
H         0.67230200992218   -1.37417954671571   -2.31293536509706
H         0.08182786752209    0.40097299251860   -0.02051946173563
H        -0.53635249825700   -1.04791179793208   -0.56221401179755
H         2.23791852066071    1.70594021346194   -0.52114842410471
