35
 energy: -49.727162091281 gnorm: 0.105341020618 xtb: 6.4.1 (79825abcba525fcdf90b791dcacef51065a7a4e7)
C         3.60127090424096   -1.37546880509294   -2.64947702063507
C         2.91758723659659   -0.09897490820147   -3.11704988799969
N         3.90063687162230    1.02320791525895   -3.13123099076242
C         3.75448756308050    1.74762198968093   -2.05946001760036
C         4.30759686262890    3.13487509606854   -1.97727844926366
C         3.51588739971263    3.85521394004829   -3.07529040373273
N         3.91681689606136    4.87082583129755   -3.77345429434706
N         2.34607842212007    3.22743838597964   -3.46956777013578
C         1.13084823673685    2.93682063790132   -2.68428828018547
C         0.00248807467424    3.83532666703315   -3.25360546671927
O         0.27302137715786    5.18280212639370   -2.86686580166531
C         0.77768295566614    1.43573000694420   -2.77524262707613
C         1.83476695068106    0.48846757054774   -2.13867453863089
C         1.08624406799518   -0.58847200551365   -1.29356439352834
N         0.23452681391835   -0.02353232724042   -0.23530032827098
N         2.76086057956682    1.22187188775919   -1.25322233880308
H         3.96815112216533   -1.30268618216779   -1.61875917986174
H         4.37526898703033   -1.60770051494563   -3.38848816867006
H         2.96051336156909   -2.25871800737804   -2.69007598000732
H         2.45760349956827   -0.21735340586235   -4.10756283012937
H         5.35341807738252    3.24118435794518   -2.27665021461525
H         4.15394272131207    3.60551737990632   -1.00421101746314
H         4.79590169554191    5.19317899194281   -3.34978470172877
H         2.10002402628074    3.56544777450392   -4.40290184176660
H         1.22408329128261    3.32243758512068   -1.65999991140079
H        -0.99297497624271    3.57933691679878   -2.87657742587298
H        -0.11037473744735    3.75893389984222   -4.34234117733989
H         1.22067609445182    5.34948236315368   -3.03129054261402
H         0.52698760264294    1.04638099396411   -3.77104851599979
H        -0.08687497994786    1.08235377778342   -2.19723771382110
H         1.84661312034797   -1.22121530970494   -0.83648872498013
H         0.40845875907219   -1.14518762445676   -1.95262090654547
H        -0.62053062885571   -0.55956931981975   -0.10905593661831
H         0.76025513228657   -0.00310150737571    0.64002098295522
H         2.26646723509070    1.76862284904325   -0.55115961175119
