35
 energy: -49.727443507988 gnorm: 0.108633513493 xtb: 6.4.1 (79825abcba525fcdf90b791dcacef51065a7a4e7)
C         3.67726274789877   -1.40218266813521   -2.71898876166962
C         3.12765088878537   -0.03419083593841   -3.09583032847926
N         4.10173443561848    1.07492313501416   -2.87924448779474
C         3.69950583043172    1.72235591631852   -1.82384345262033
C         4.14695072944137    3.13553328353504   -1.62414943743739
C         3.60499128405212    3.76396046645048   -2.91359947040308
N         4.30612688861567    4.59855927462068   -3.61466899572606
N         2.32328399588208    3.51515104374862   -3.37547619271262
C         1.17697992700344    2.91036123397842   -2.66969774105303
C        -0.06514750747094    3.77070329084180   -3.01835629761932
O        -0.03114899349339    5.03897054483478   -2.36353706673740
C         1.05944084256772    1.44953237689987   -3.15799594583717
C         1.86796271201631    0.44695874486561   -2.28559113206549
C         0.93275427158027   -0.63526608870218   -1.66231662588804
N        -0.04201789299200    0.06358082373838   -0.81029890987277
N         2.57465262514595    1.18757745874018   -1.22181004426243
H         4.52954723117766   -1.68193239373308   -3.34956700774418
H         2.93178995569135   -2.20266599513891   -2.66761921734328
H         4.23037248641187   -1.34725601403318   -1.77909497079878
H         3.03164761624361   -0.07592486448928   -4.18933663590738
H         5.23159154113143    3.17832727649194   -1.49612561376481
H         3.70814866811792    3.55245113866303   -0.71552066948456
H         5.26256824121109    4.59995158192880   -3.23861638255397
H         2.19041854265821    3.77669065401591   -4.35519522654489
H         1.37144977576577    2.98476621738465   -1.59117780619974
H        -0.99513969672174    3.35665242717104   -2.61548659695712
H        -0.11573272445360    4.04534457993042   -4.07945601908971
H         0.83632967639941    5.45492815121509   -2.52884673632319
H         1.40709608412498    1.45714196985176   -4.19970038051055
H        -0.00126520692236    1.20934282201549   -3.31173764143998
H         1.64822075226488   -1.26115791576753   -1.12957794932934
H         0.40804004023322   -1.15136483999457   -2.47594906978071
H        -0.54196641255488   -0.56133715068933   -0.18266403272942
H        -0.70747462958068    0.52709909554740   -1.43103494826138
H         2.03078415560685    1.61068320125693   -0.47251565758879
