35
 energy: -49.719970824330 gnorm: 0.112185617156 xtb: 6.4.1 (79825abcba525fcdf90b791dcacef51065a7a4e7)
C         3.44982166328413   -1.44686251425593   -2.63483582348967
C         3.03608583649160   -0.02505943048891   -2.98524001384980
N         4.20625202552599    0.89843163155553   -2.92394280495922
C         3.99537232487792    1.67634550867431   -1.90158857192587
C         4.44830364235863    3.09603313393992   -2.03002222682017
C         3.81752424082276    3.67498077296879   -3.30213038446275
N         4.38977896893594    4.18454432780310   -4.34736448103540
N         2.44547699846965    3.85985956502062   -3.26585308866780
C         1.30360579376818    3.21165504695476   -2.59215580782789
C         0.07638378086195    3.92257292152427   -3.21917555006041
O        -1.14187587896148    3.60129910879755   -2.54755623811109
C         1.14877778120108    1.69661833459128   -2.85092902305008
C         1.96890838113856    0.64825332640331   -2.04577792414564
C         0.92237393974833   -0.25272916967504   -1.31962865641184
N         0.09015529702437    0.45023008847896   -0.33080997579526
N         2.89221081461805    1.35092430157186   -1.13291262571197
H         4.01915424747778   -1.36454667447207   -1.70136799101385
H         4.07150557618069   -1.86767163271759   -3.43206281604342
H         2.50432953014367   -1.98439826733530   -2.53763700714318
H         2.65637535118036   -0.09015616971998   -4.01397553837011
H         5.53444320757473    3.13572473498776   -2.14574846524633
H         4.18134380477882    3.73785754332170   -1.18813869987497
H         5.39806581719046    3.99298146332458   -4.29389608073004
H         2.05271928568729    4.13524546651917   -4.16907487187460
H         1.22613387241717    3.39448423468861   -1.51181721795279
H        -0.05745892936097    3.64975839321139   -4.27097684330289
H         0.20214183262769    5.01063642988549   -3.15419825800906
H        -1.11127121214565    3.77298646989973   -1.58711151558978
H         1.38632726500789    1.54442388344030   -3.91228537437411
H         0.08696143176476    1.42702082142002   -2.77163155371600
H         1.50998196474117   -0.92360498444485   -0.69346109407875
H         0.44734715580140   -0.72249094550449   -2.18988961714595
H        -0.62138248511828    0.96359975087883   -0.84516599382789
H        -0.31459612957117   -0.28174574490515    0.25517871684466
H         2.34786107375208    2.01344970714636   -0.58428075280265
