35
 energy: -49.721623100723 gnorm: 0.118495346289 xtb: 6.4.1 (79825abcba525fcdf90b791dcacef51065a7a4e7)
C         3.58618194924207   -1.39365285995698   -2.83144838494111
C         2.97271078814729   -0.03199671153181   -3.12304758690544
N         4.00043309800490    1.04228439817106   -2.99819193650337
C         3.67154886790491    1.69748167321433   -1.92237592434662
C         4.30264934416316    3.03093902479808   -1.67588337508037
C         3.71138899423180    3.91714468676061   -2.77877633958096
N         4.18516540243056    5.01584206556769   -3.27681728355697
N         2.55985887246301    3.47596837454970   -3.40913470910578
C         1.36948047261746    2.98178185871085   -2.69032603979716
C         0.04906682165270    3.69304617226635   -3.08433451462490
O        -0.00348223131492    5.10910673138996   -2.90981508555336
C         0.99622568927431    1.49238647462815   -2.85960029143343
C         1.83909865126601    0.41014502482857   -2.12593124796942
C         0.91359520097060   -0.72301173726030   -1.58399433783722
N        -0.29992204645588   -0.12516363957712   -1.00567305724971
N         2.69901554513580    1.09779684963048   -1.14245028677194
H         4.33586624343969   -1.63377480499771   -3.59472591427567
H         2.86480099793416   -2.21297076157680   -2.91787623801218
H         4.02179276111399   -1.37422685054562   -1.83034223967750
H         2.62134200467995   -0.10522581624452   -4.16126330817719
H         5.33901174303588    2.90067053996638   -1.99783095309796
H         4.23012577215484    3.53665714612610   -0.71101888526069
H         5.11052268461740    5.18148172385310   -2.86151622311641
H         2.27335859061464    3.98661155149760   -4.24762544925619
H         1.47209440982913    3.07873307332362   -1.60100023199658
H        -0.76698070908025    3.32050752075854   -2.45671283652416
H        -0.18943255851947    3.43566584329070   -4.12394633350249
H         0.63969334045960    5.58993566887453   -3.46478893515631
H         1.06670003967598    1.42277461564765   -3.95333597829709
H         0.03308555524830    1.44086238747081   -2.33411838935613
H         1.52318213523749   -1.23065752936129   -0.83690473848947
H         0.47286025361332   -1.33720866121257   -2.37910158340716
H        -0.15043131701356    0.30196413330452   -0.09484325876407
H        -0.94306726759517   -0.87370400057284   -0.74290579175379
H         2.25746249758340    1.68937052354904   -0.44150452495233
