35
 energy: -49.721561629324 gnorm: 0.107885293856 xtb: 6.4.1 (79825abcba525fcdf90b791dcacef51065a7a4e7)
C         3.40880839255876   -1.44893716786697   -2.52346897097886
C         3.03386487051027   -0.09229549633667   -3.10176403061835
N         4.13847912520209    0.90976715750560   -3.06201746114367
C         3.88101268595239    1.70381400312903   -2.06300341357223
C         4.45150063017617    3.08056302825812   -1.93548645182534
C         3.85156948417776    3.72977815788935   -3.18845274706740
N         4.51435774520399    4.17117712523388   -4.21096117464940
N         2.47802955059226    3.90022927503168   -3.23687095806199
C         1.38878023012246    3.19858272098481   -2.53037607631765
C         0.16860848316453    4.13872587469815   -2.70910373273110
O        -1.04164912428074    3.74400527671457   -2.06263786507319
C         1.25209008787261    1.75121263360919   -3.05258979483040
C         1.92283558130722    0.60914635994005   -2.23666284468452
C         0.90499839282724   -0.30531437077497   -1.48695251505758
N        -0.22292809730133    0.45500750247930   -0.92642201105582
N         2.87820783074161    1.18023604389504   -1.26677760164743
H         3.58244260689953   -1.46432610582199   -1.44092935559758
H         4.22444598185537   -1.88834355435084   -3.10724926389783
H         2.53559862504855   -2.10087267420251   -2.59298491367080
H         2.75773204668451   -0.23384201952668   -4.15553329470197
H         5.54338072970580    3.04474374436149   -1.96986619686049
H         4.09415375111190    3.60188259206012   -1.04526000949401
H         5.53493468072567    4.06459572656032   -4.15385873002052
H         2.14446755596349    4.22334477800913   -4.14804512852093
H         1.66161334155397    3.25360990260182   -1.46778773360420
H         0.04185890340183    4.24872605652601   -3.79098269695057
H         0.38854046628753    5.13027170075804   -2.29390965213957
H        -1.55967457656178    3.04767786873568   -2.50945441435997
H         1.51893318620302    1.69692876412758   -4.11650624928608
H         0.16505381601501    1.66564258842463   -2.92047320956618
H         1.52601950977095   -0.92985786996084   -0.84529719641426
H         0.51744826527652   -0.96355364658429   -2.27448452242336
H        -0.24050391155465    0.66371031887671    0.06883210607004
H        -1.18215174508951    0.13624508565098   -1.07228357092745
H         2.40624905914213    1.73204422273541   -0.55332393140578
