35
 energy: -49.720219647428 gnorm: 0.109327768272 xtb: 6.4.1 (79825abcba525fcdf90b791dcacef51065a7a4e7)
C         3.55623735308495   -1.57789089561946   -2.47750414135097
C         3.11756370347659   -0.30159965634951   -3.18044835853959
N         4.09786798109212    0.82259981613430   -3.14787401447689
C         3.82819882642072    1.52115380915707   -2.08291895036635
C         4.33017771044448    2.91650300784519   -1.88754050862891
C         3.59756623301427    3.93531946753203   -2.76879848120332
N         4.14453535228115    4.93911035476202   -3.37943211760032
N         2.25525322562450    3.80749365052632   -3.08481461421099
C         1.17948797538754    2.91615102266203   -2.60926814343410
C        -0.06737020172317    3.69312919943150   -3.10553566986011
O        -0.17222954638868    5.01820335032963   -2.58435530157872
C         1.27757628176741    1.50430857951769   -3.22842174551862
C         1.96415825000359    0.40079815232825   -2.37354065084496
C         0.87060137239521   -0.48684435004951   -1.70233222590505
N        -0.05497929122466    0.33155560550344   -0.90356821873817
N         2.75599220230833    1.07948324930569   -1.32858011761080
H         4.26802384930230   -2.15857521072176   -3.07620556643040
H         2.74805622739084   -2.30496156352845   -2.34577108411376
H         3.90723960747000   -1.28678140763799   -1.48533462105316
H         2.77156155072175   -0.57782432077942   -4.18578257152517
H         5.40607091558454    2.98297960278772   -2.06837692425289
H         4.24938007899753    3.33257795690308   -0.88139569896623
H         5.15438432473943    5.12974275684019   -3.38729938916706
H         2.07723662673650    4.63790267442956   -3.65458347250066
H         1.23272229888162    2.91797529930735   -1.51212518085701
H        -1.00981905755156    3.14996235797422   -2.98148917095066
H        -0.00385799086425    3.83491772033690   -4.19171316508706
H        -0.49019673638293    4.89562846590806   -1.66962062643885
H         1.83228154443855    1.68779347017019   -4.15831722163716
H         0.20526708214325    1.28878925491998   -3.32906615454390
H         1.37557078933319   -1.24632210668210   -1.10597428274996
H         0.21257427602443   -0.99398116279682   -2.41891670257601
H         0.43143305640266    0.67946967759735   -0.08091679315666
H        -0.77483699916203   -0.28991299279997   -0.53130923570255
H         2.37695173244408    1.80478179649792   -0.72316799618852
