35
 energy: -49.726047965126 gnorm: 0.119944096128 xtb: 6.4.1 (79825abcba525fcdf90b791dcacef51065a7a4e7)
C         3.54562491656578   -1.34679464909774   -3.09832018567887
C         3.00688610344452    0.06386776256992   -3.28614053363005
N         4.07802459613975    1.05292614620806   -2.96942640886220
C         3.67075317270682    1.65674966017403   -1.89037332026091
C         4.15588534821849    3.02163262961097   -1.51768553670865
C         3.55777799645054    3.87815151185375   -2.64016724278116
N         4.18515822438984    4.81814948192744   -3.27455093939153
N         2.30823169126876    3.64150123979213   -3.18847419069430
C         1.11461825305406    2.98589372592296   -2.61981550232991
C        -0.04998702443191    3.92459332897041   -3.02867907154458
O         0.26481026473976    5.29793062209719   -2.79782565928302
C         0.90093073796897    1.51174890440745   -3.02909069178501
C         1.81950652532143    0.46530193804945   -2.33546333578897
C         1.14432849649814   -0.75801365672474   -1.64125147396157
N         0.02627505275718   -0.35107291800962   -0.77588583134393
N         2.56864149313992    1.12319115462147   -1.24664034018618
H         3.74285833719655   -1.55936444784443   -2.04087480356294
H         4.48070260104285   -1.49712369745160   -3.64802281203392
H         2.86253826168133   -2.10010583910444   -3.49614242839577
H         2.82751109536288    0.20781872861129   -4.36029933889578
H         5.24091913331695    3.10074781441114   -1.41228346051689
H         3.69954347383997    3.35609222292025   -0.58394955981696
H         5.05897285602760    5.08265697442116   -2.80265969881188
H         2.10875192962084    4.09736497894061   -4.08195147886217
H         1.18212953056886    3.09596663366216   -1.52899651877068
H        -0.94003078682894    3.66324418221350   -2.44717557592139
H        -0.15555150193344    3.75994650975053   -4.10833961801453
H         1.22310468535945    5.37006649692705   -2.96910169472289
H         1.09754295815059    1.43258922112140   -4.10665626916026
H        -0.15114944136228    1.19700556363943   -3.05119889151653
H         1.90229421192404   -1.33992258221274   -1.11750217672783
H         0.61255007505931   -1.30819019027616   -2.42750728359929
H         0.42733476302120    0.01251656226440    0.08513120454232
H        -0.39170467929103   -1.23016719049482   -0.46688536243846
H         1.97395757126437    1.42261436800278   -0.47660771229332
