35
 energy: -49.731789929723 gnorm: 0.104725183290 xtb: 6.4.1 (79825abcba525fcdf90b791dcacef51065a7a4e7)
C         3.55334199205012   -1.44327091664832   -2.82168637674465
C         2.99392292235937   -0.09126613277455   -3.23955933276984
N         4.00458694630802    0.99524229427292   -3.08483485590325
C         3.69903843049401    1.64605743930315   -1.99952007808342
C         4.15871433350112    3.01163362754935   -1.59820390370163
C         3.60168163553836    3.94701895229470   -2.67806086133537
N         4.14341308786020    4.99684009017816   -3.21102184838249
N         2.41409189300822    3.57904298997167   -3.28817080032579
C         1.21725860938830    2.94964263899604   -2.69711052407889
C         0.01162850628292    3.78147806825446   -3.20616621183453
O         0.07018835639357    5.17925562778346   -2.92114939200553
C         0.99550979303974    1.45109195149214   -2.99950895203115
C         1.85698662381056    0.38586273073025   -2.26255845868037
C         1.02703567593455   -0.69513153688539   -1.50299980336642
N         0.12779617662340   -0.08973656431991   -0.50833040399667
N         2.69170034266175    1.06392908345715   -1.25110605648047
H         4.47997581132326   -1.65115503577027   -3.36978457779579
H         2.88947037205631   -2.26431970545333   -3.11202314038209
H         3.71911730409365   -1.59674007457426   -1.75336366039654
H         2.62693082215505   -0.06803899662769   -4.27468817300533
H         5.24314571327328    3.14029841718463   -1.55214862121564
H         3.63781321190975    3.16539524782726   -0.65110655299946
H         5.14106235156895    5.16308130792640   -3.02865582861320
H         2.35719828663517    3.88233956524009   -4.26319895018824
H         1.21542527720880    3.14014701036091   -1.61532283713357
H        -0.86242187080002    3.45084679888125   -2.63577468253914
H        -0.20503981051414    3.72378119876694   -4.28024499531147
H         0.95502455486507    5.54143949903620   -3.11801229885867
H         1.09476627070309    1.29769096385225   -4.08241545150550
H        -0.08391166721857    1.31110952532750   -2.85227073080485
H         1.74572853748115   -1.33069288517037   -0.98629321196715
H         0.56975361956327   -1.33557876360305   -2.26746116368853
H        -0.55598746920506   -0.79314980928120   -0.23991604163304
H        -0.36834553420441    0.71372795484878   -0.89728188206675
H         2.37886271585815    1.60536215476106   -0.44784001949113
