35
 energy: -49.724450224330 gnorm: 0.103140683609 xtb: 6.4.1 (79825abcba525fcdf90b791dcacef51065a7a4e7)
C         3.44904765806911   -1.42596508248159   -2.67408561617141
C         2.87065709126701   -0.12228879532491   -3.20453538259538
N         3.91032760878840    0.94735904290867   -3.23318381904321
C         3.79816459705726    1.62890728896679   -2.12967130354724
C         4.38273076151718    2.99174140804715   -1.93442659390073
C         3.89115399078705    3.90339261651233   -3.06516377062416
N         4.69035230581652    4.80251680389436   -3.54734896479273
N         2.57217512869209    3.71598460916062   -3.44355887965239
C         1.49927861905257    3.09720098438596   -2.64112077476229
C         0.24191532425423    3.99449477033820   -2.77725771313587
O        -0.84082737209654    3.37001144392331   -2.08723249808755
C         1.16585588977327    1.67998305932886   -3.15744840247015
C         1.79157641574680    0.55617123840724   -2.28253552492684
C         0.75125939777798   -0.31757864738416   -1.51533397378350
N         0.04844546622324    0.56308431745270   -0.56929628788005
N         2.79981389176081    1.08408254543329   -1.34215059657425
H         3.59706645227308   -1.35197074858900   -1.59016082130624
H         4.38998979632916   -1.59913629116891   -3.20679727506741
H         2.83125323745956   -2.28385713212752   -2.94739671297291
H         2.47716417332334   -0.35708782129815   -4.20290764353206
H         5.47567083903718    2.98934914708999   -1.94640177962896
H         4.05137130125919    3.37651145298577   -0.96792417529755
H         5.63037164386237    4.73974854941026   -3.13671365652099
H         2.31337900461594    4.12749783310990   -4.34332942211943
H         1.77195306535121    3.09568598822073   -1.57706896720480
H        -0.15044619154167    3.98766486000399   -3.79933079952318
H         0.41207891760079    4.98564682463710   -2.33841686166224
H        -1.66812800009994    3.74719101337852   -2.44244582240374
H         1.41716284896715    1.56474149904459   -4.22029101337915
H         0.06755914084136    1.66925034291096   -3.16479327787594
H         1.22403089588571   -1.17111409694335   -1.03014564984940
H        -0.00090724120831   -0.79888973838357   -2.15272372123006
H        -0.67413282103739    0.08380968448230   -0.03772034434701
H        -0.28767195148835    1.43820916848669   -0.97448348126086
H         2.42515849342831    1.58099718061794   -0.53656840515483
