35
 energy: -49.722960886717 gnorm: 0.109688029129 xtb: 6.4.1 (79825abcba525fcdf90b791dcacef51065a7a4e7)
C         3.57340520239175   -1.43717133556421   -2.95957373633414
C         3.15324003205041    0.01606175724857   -3.12407073527881
N         4.26255170966505    0.98021880752068   -2.86772956842535
C         3.79277636332885    1.72129251876198   -1.90598671434891
C         4.29995812046549    3.06753271176346   -1.49664702915331
C         3.67535085299767    3.85586849499145   -2.65410745791841
N         4.41358373618125    4.46647964963127   -3.52692532926498
N         2.34556197632569    3.72846851832781   -3.01940269072164
C         1.13582668339001    2.98893964859825   -2.61008066434761
C        -0.08998785761985    3.73008454300653   -3.20397862398666
O        -0.37446267510287    4.97855697431543   -2.57244349213858
C         1.01705245208752    1.52722117468344   -3.09540873395040
C         1.91667397663344    0.53632617837128   -2.30246488968446
C         0.98477601749567   -0.56871132793682   -1.71530656981514
N        -0.10982317791022    0.06517265956796   -0.96394402136349
N         2.69500495795417    1.20505006462113   -1.24106665470378
H         3.89550682906603   -1.53190042541805   -1.91575640176219
H         4.35346991157339   -1.70503519416003   -3.67991399321832
H         2.70529667885470   -2.07226624830261   -3.14769527402628
H         2.77941689510195    0.08192486966276   -4.15491153122126
H         5.38697111374320    3.18175388312367   -1.49180800737658
H         4.00024636083867    3.28452887854501   -0.46948612480031
H         5.41525405530139    4.41070469522825   -3.30389328607441
H         2.09585396069910    4.14160718154849   -3.92099458756632
H         1.02286899794959    2.93309581117927   -1.51889694536885
H        -1.00935783245960    3.17767214068506   -2.98437219655863
H         0.04073365052232    3.85683707846883   -4.28599757435749
H         0.34042219478373    5.58093975927106   -2.85340944108720
H         1.33620840708503    1.47338084225514   -4.14484234987687
H        -0.02682604370877    1.26488520308152   -2.87649686399256
H         1.61026136635412   -1.15858779618434   -1.04578644291326
H         0.39540083572698   -1.20721996477180   -2.38510081022621
H         0.22679689836583    0.55466022245186   -0.13842273736782
H        -0.70646192849590   -0.64997529866461   -0.54492052923919
H         2.17471972869821    1.75846565369882   -0.56335878397511
