35
 energy: -49.700995068189 gnorm: 0.137224551744 xtb: 6.4.1 (79825abcba525fcdf90b791dcacef51065a7a4e7)
C         3.64680603632089   -1.42978880529077   -2.30192312608636
C         2.97923873530322   -0.32365649982704   -3.10585702026555
N         4.03162650862359    0.73263822957644   -3.15688112089914
C         3.80887127745087    1.38185069163277   -2.05065703620244
C         4.30176883154848    2.78336780298996   -1.87757691953965
C         3.58893684797999    3.92401335817825   -2.61386521819039
N         4.22896907420755    4.89696778398471   -3.18251559132450
N         2.22209627201893    3.91633602368759   -2.83679511559607
C         1.07850889245918    2.98875398311078   -2.73827376276103
C        -0.10505671297673    3.69696843380954   -3.44696030134384
O        -0.25265462939145    4.96466561862305   -2.80695665067868
C         1.43912732448883    1.65721910057169   -3.43342899317770
C         1.80977304563999    0.50451046855782   -2.45678354977986
C         0.75085247191262   -0.43765963269756   -1.80463376183493
N         0.31186706276958    0.25097023906477   -0.58087614165087
N         2.64895734322858    1.05223517016625   -1.37265977185104
H         4.34177474578345   -1.92601627243922   -2.98971269063745
H         2.98903831664968   -2.23442753987963   -1.95690106523486
H         4.09285816074020   -1.08114502146334   -1.36820331291725
H         2.81728304270460   -0.61027884724406   -4.15387058292726
H         5.36099659879926    2.91860392494443   -2.11084686831422
H         4.24565330922822    3.01469659076785   -0.81206668992595
H         5.20873748236020    4.87584481078389   -2.87299134837074
H         1.99357588450859    4.76334817113773   -3.36239426153783
H         0.73384973544962    2.88080272874340   -1.70091341511127
H        -1.03842415750530    3.14962140930164   -3.28003501699382
H        -0.14360342734469    3.78962375515190   -4.53959403421247
H        -0.57805485946116    4.90262207304997   -1.88873415552297
H         2.27296616480176    1.81644939840017   -4.13015615162130
H         0.55337062091932    1.33410862175644   -3.99686450287576
H         1.33848179890311   -1.30830674481363   -1.51461865638272
H        -0.11044176011832   -0.52950585519919   -2.47799640003330
H         0.87874108637218   -0.02432037908903    0.21741294121214
H        -0.67729347013733    0.02077407172789   -0.47332961623820
H         2.22191425727259    1.73060894710958   -0.74520720599402
