35
 energy: -49.717356408243 gnorm: 0.118095206716 xtb: 6.4.1 (79825abcba525fcdf90b791dcacef51065a7a4e7)
C         3.53177646477100   -1.43298973073679   -2.81681232018195
C         3.02195738742389   -0.03471322038662   -3.13365880471625
N         4.05819145159571    1.02009283021948   -2.93495017601465
C         3.68581306899052    1.73026559526204   -1.90936870211128
C         4.25761327080059    3.08721071434996   -1.64688184958580
C         3.58895993355745    3.94369739932471   -2.72885016502666
N         4.19713575904372    4.93490868427258   -3.30092284105957
N         2.45299968759908    3.47894234360933   -3.37041612438616
C         1.24676378005614    2.92726532289852   -2.72345836175740
C         0.05710449679477    3.79057107445893   -3.21746826207125
O        -0.02069789490913    5.10786544740578   -2.67237352947020
C         0.98304765931190    1.45481245374270   -3.10895524422078
C         1.84210932663044    0.49425549169135   -2.23757990325490
C         1.01082450173009   -0.64564188662123   -1.57132470489076
N         0.04966039479554   -0.20886297234503   -0.54668346086129
N         2.60820738267702    1.22190341156337   -1.20647410874789
H         4.20530289370901   -1.74403727639024   -3.62420890365278
H         2.71802636134185   -2.16211042862795   -2.74376545164362
H         4.03583606749105   -1.76312329968082   -1.90616234202695
H         2.71903303375902   -0.08955475414651   -4.18814618472590
H         5.31550913803020    3.16515034389962   -1.91041340045166
H         4.14115653989871    3.46793543557371   -0.63028926480194
H         5.13688983563275    4.96876381633317   -2.88629810242253
H         2.37750355433871    4.05541170224841   -4.21177752252728
H         1.30345955786115    3.19561211271785   -1.65981582068981
H        -0.89005474638668    3.31957955268188   -2.93518482042915
H         0.12890603748652    3.80037618600381   -4.31230511037212
H         0.63734129465247    5.67578074400005   -3.11658507772318
H         0.93203295752675    1.33563810059231   -4.19948958265207
H        -0.03125520090323    1.16740210638672   -2.80071855351477
H         1.74919521035031   -1.20516829766656   -0.99758064840251
H         0.61006507176946   -1.33220540422038   -2.32743520961513
H        -0.23008121608242   -1.05604602112247   -0.05839865761470
H        -0.77969137996232    0.12387176797780   -1.04111071270499
H         1.98397733954561    1.68630387817393   -0.55002722261414
