35
 energy: -49.728159868603 gnorm: 0.106111424098 xtb: 6.4.1 (79825abcba525fcdf90b791dcacef51065a7a4e7)
C         3.76402854825256   -1.32128602778352   -2.75614080723516
C         3.06049672422872   -0.00725329380060   -3.06248268328158
N         3.99331526605596    1.13591211805288   -2.84133932085062
C         3.53262244991234    1.76176827719279   -1.79688032231224
C         3.96775819641383    3.17693054379479   -1.58444785485742
C         3.67467453543503    3.78397959068587   -2.96173344585261
N         4.36338761530448    4.66379591968764   -3.61842386636197
N         2.42544144429411    3.43674761176577   -3.44841245818629
C         1.25821331607479    2.94971696661552   -2.68796089277937
C         0.08018850935103    3.86403158154725   -3.11330561644309
O         0.23039464272732    5.23294950748787   -2.73654605023691
C         0.90761232217823    1.46124624352526   -2.90660518640930
C         1.81663501984277    0.41670650089088   -2.19768623228423
C         0.92895821106118   -0.77303188322651   -1.71721878168664
N        -0.08795133725222   -0.18567917359570   -0.83098307416119
N         2.52130714435219    1.11818709796989   -1.10639384490442
H         4.72534163773566   -1.31986222480752   -3.28354273426732
H         3.27702456481373   -2.24883083795215   -3.07493511096940
H         4.07558469194376   -1.35990919555010   -1.71029728378493
H         2.79452201501323    0.01455505510967   -4.12807934628803
H         5.02148359786482    3.23573950673553   -1.30006886574602
H         3.31659729779418    3.69133688390230   -0.87497650415056
H         5.26425956620360    4.78189761934881   -3.13813303674414
H         2.27759906681142    3.88884701093103   -4.35376009572584
H         1.50380876786590    3.06454345252993   -1.62350910159306
H        -0.86871083100852    3.47882859203116   -2.72621870168184
H         0.03712594649101    3.77711433306484   -4.20624217917205
H         1.06526749404061    5.65011343863407   -3.02260344508721
H         0.92217227964771    1.27923072882728   -3.98953110980742
H        -0.14863507338570    1.20899448966455   -2.74187713179581
H         1.54060275502589   -1.57102788599740   -1.29705610622847
H         0.39146392948309   -1.11827706008677   -2.60917526497758
H         0.13392152921349   -0.03520794067765    0.15010171967008
H        -0.95389153197062   -0.72645927898343   -0.80453427730377
H         1.91594160672880    1.39695369580963   -0.33692961099533
