35
 energy: -49.717787553826 gnorm: 0.126359789348 xtb: 6.4.1 (79825abcba525fcdf90b791dcacef51065a7a4e7)
C         3.63734787152441   -1.43367944732447   -2.63087045561161
C         3.00775113162549   -0.13533217370003   -3.11397164275888
N         3.89989067998927    1.05912180180253   -3.17096933272693
C         3.63777622210864    1.67781288797402   -2.05591517258005
C         4.24086515960560    3.00164592997920   -1.70820156130259
C         3.60604636677534    3.96748005449908   -2.71591766606139
N         4.05566820823925    5.14297234868826   -3.02527648921708
N         2.47859268492134    3.53043057305241   -3.39108120913489
C         1.32351779643736    2.87510746475411   -2.74745039483445
C         0.10636455725855    3.77078038049698   -3.09521449386151
O         0.27785864084119    5.17784150189826   -2.92429130341013
C         0.98451339939796    1.39764114227594   -3.04484043738452
C         1.81020903945442    0.36513286918058   -2.22502027912950
C         0.86187687419954   -0.71842587178819   -1.62430143309857
N        -0.32296157661809   -0.11969187425575   -0.99012683187162
N         2.69604606176604    1.04843147900185   -1.26171724415835
H         4.60548233313133   -1.61933811517111   -3.11099982000848
H         2.94466131037780   -2.28077124082504   -2.58888353441208
H         4.08602331735923   -1.31005147850156   -1.64306777353773
H         2.62535893553630   -0.35232663706318   -4.12065135369209
H         5.32621616704287    3.08110072979446   -1.81002133328599
H         4.05980230539481    3.21978707828754   -0.65387491328522
H         4.93574737485102    5.44954993381635   -2.59206937145541
H         2.14254447879205    4.05518217053039   -4.20201460022150
H         1.52656633045791    3.12080201210059   -1.69627705913591
H        -0.68599815499356    3.50128370756432   -2.38940965156073
H        -0.27195128351535    3.57549051437025   -4.10648019735344
H         1.12195821493153    5.56234744433109   -3.22845959183312
H         1.26223618457845    1.26307604630623   -4.09880082960200
H        -0.08069727860849    1.28868206278600   -2.80013855316943
H         1.36657498608042   -1.17989087070050   -0.77590692791613
H         0.60673584604763   -1.35411427960182   -2.48132186282143
H        -0.04654044902755    0.41431000188232   -0.16986474235724
H        -0.91884371034325   -0.90727592747992   -0.73006736008337
H         2.24951603396212    1.69268101833622   -0.61225057112034
