35
 energy: -49.721541944345 gnorm: 0.107677581263 xtb: 6.4.1 (79825abcba525fcdf90b791dcacef51065a7a4e7)
C         3.60621963780348   -1.59389625852003   -2.89593977737512
C         2.98310776686725   -0.22820684558765   -3.14515549013148
N         4.09086300580789    0.77064702426977   -3.11273191332047
C         3.83390725913246    1.58505832767007   -2.13011479740342
C         4.41653395584170    2.93327434926510   -1.84724621752191
C         3.66241137155464    3.92426853774094   -2.74198183606160
N         4.08426855790560    5.09815032684648   -3.09366759373952
N         2.34041027199686    3.75799312575995   -3.11970583531752
C         1.18765529713353    2.96181834985101   -2.65584307125290
C        -0.13440402782639    3.70153368552972   -2.98692040169706
O        -0.03840540182921    5.05659405378340   -2.54755537740623
C         1.14984331208759    1.50945095699363   -3.18069615460317
C         1.87236080131534    0.46973401787257   -2.27686604094694
C         0.98961413206296   -0.60174411627334   -1.56483409621410
N         0.00369307517218    0.08904911793553   -0.71909988483235
N         2.72801751720263    1.25651140550128   -1.36670677988987
H         4.11984309227579   -1.53340922521075   -1.92908407494202
H         4.38045261817561   -1.73094472749742   -3.65812288832722
H         2.90394755831219   -2.42845565984184   -2.94763307862430
H         2.71947397511189   -0.29268035944113   -4.20960596693165
H         5.48201496983832    2.91457893527912   -2.09028495884406
H         4.27838019980772    3.24669956190694   -0.81059189691539
H         5.08316989704369    5.30485643950553   -2.96850265836091
H         2.04454459087374    4.50466672139479   -3.75283113201490
H         1.16963913604840    3.00568682104814   -1.55843208683969
H        -0.88326939806876    3.12895703497211   -2.43015812219975
H        -0.19522938422139    3.77284715356263   -4.08014224528487
H        -0.56471369529663    5.23198654962619   -1.74437151724161
H         1.62391019598391    1.51377176561784   -4.17130815658619
H         0.09846172001455    1.22373637348003   -3.31993983835752
H         1.55338813677480   -1.26981526385753   -0.91423193262398
H         0.52423665965504   -1.29947746019103   -2.27213367463900
H        -0.72168724975206   -0.57450500996666   -0.45849320219393
H        -0.34707449334160    0.92654116715238   -1.18660845880749
H         2.35758749141745    1.90358938490279   -0.67365182637665
