35
 energy: -49.712765150923 gnorm: 0.130425025383 xtb: 6.4.1 (79825abcba525fcdf90b791dcacef51065a7a4e7)
C         3.74747894967900   -1.38219300248938   -2.51846083103920
C         3.02955188051174   -0.16113972512527   -3.07442313742477
N         4.07367631221352    0.90360680568292   -3.02969030519168
C         3.64769733800409    1.61465754775289   -2.02580923470859
C         4.25945844971500    2.93928117863673   -1.69675672500425
C         3.70074443557058    3.93671383561209   -2.71866129941659
N         4.23104568355825    4.99573923455272   -3.24486526264849
N         2.46468362436338    3.61874972760006   -3.25630649640961
C         1.24402063264901    2.93391833461869   -2.78844455047401
C        -0.08289369360642    3.70490678536786   -3.01094624607889
O         0.07622947099850    5.09125410755677   -2.70900771296080
C         1.04890990225215    1.46291247756490   -3.21779886338825
C         1.79730983130705    0.44669832456270   -2.30831655036756
C         0.77006294199900   -0.57567103831930   -1.73054383102017
N        -0.31154361510199    0.07882481229545   -0.97803839904523
N         2.58811978112407    1.14111565806958   -1.27296097411451
H         4.74563965833533   -1.16024256913444   -2.91430283953651
H         3.34082142097169   -2.34542882604240   -2.84395812391903
H         3.78714017700025   -1.40857829121943   -1.42755365137257
H         2.76798866506146   -0.29061859475818   -4.13344832256838
H         5.33981194030369    2.79760591069273   -1.78296348097375
H         3.85340464168607    3.29759833119010   -0.74875717631844
H         5.24550374635152    5.01919245945075   -3.08200840974807
H         2.23176992968158    4.29825716946869   -3.98426697232573
H         1.38207134080326    2.99160732402086   -1.70024701123735
H        -0.75341680036101    3.25996737470389   -2.26861526710068
H        -0.44742553821551    3.64289527037241   -4.04399534052906
H         1.04515775346338    5.17041460939970   -2.62080986386540
H         1.35405450769437    1.39364257463877   -4.27049001914623
H        -0.01060480531074    1.17533908968644   -3.25178435736431
H         1.36118324586928   -1.33382376380514   -1.21748963978748
H         0.52711140358029   -1.07089005836603   -2.67891791177070
H         0.11996096293602    0.34878238295217   -0.09751398058253
H        -0.93480315604640   -0.69516016337421   -0.74247547462527
H         2.03242838470501    1.75129809843234   -0.67702644753374
