35
 energy: -49.716220329491 gnorm: 0.116272562098 xtb: 6.4.1 (79825abcba525fcdf90b791dcacef51065a7a4e7)
C         3.55269269545305   -1.54196717587819   -2.28489963468671
C         2.93630464405399   -0.39068447244826   -3.06598757317531
N         3.98874381383019    0.63306843040427   -3.33090982558138
C         3.84205968471085    1.55466333713694   -2.42317913566701
C         4.50117055705737    2.89400286882770   -2.32885313699936
C         3.49680169622358    3.91241429539284   -2.88148640425955
N         3.83341758432215    5.16393945603011   -2.88588288265067
N         2.20270743999637    3.72371631947894   -3.33725274998734
C         1.16109722454773    2.85783986366150   -2.75140882578511
C        -0.17157156000536    3.51432676331514   -3.19598807355957
O        -0.09696390495834    4.93430995238476   -3.06742912828472
C         1.14298852279693    1.37189552038347   -3.17320622052006
C         1.91106356703406    0.43121858464246   -2.20102344424953
C         0.80542593035388   -0.29819562556809   -1.37651334680274
N         0.36428766086470    0.54172232751594   -0.25204154162993
N         2.91759452811770    1.21054789434651   -1.45329474634259
H         3.87399601789426   -1.23398529986673   -1.28280731177282
H         4.48884173325315   -1.84278610748627   -2.76684883777302
H         2.80933745595112   -2.33887267569706   -2.21625356340360
H         2.50067735448504   -0.73192659853340   -4.01493283077875
H         5.44923187905623    2.87838235999999   -2.87254685364582
H         4.66556793210095    3.25410059262469   -1.31136744634840
H         4.84377492676605    5.34822620509457   -2.84827969908348
H         1.89535056321944    4.52233269274401   -3.89729670814956
H         1.27509932462489    2.92786284278989   -1.66115188428820
H        -1.06794463859094    3.10699745238768   -2.71721283402738
H        -0.16740499292941    3.46225477160306   -4.29197643325776
H         0.49554750030469    5.09263537510610   -2.30800134578420
H         1.66474221029408    1.35978133939850   -4.13948597355997
H         0.07848488681830    1.19143389917342   -3.37492505702046
H         1.16764685108609   -1.24621661186769   -0.97965622515677
H        -0.10584760757583   -0.41369584283910   -1.97644746939673
H        -0.57193233452783    0.25030096971545    0.01807371637297
H         0.86985987306095    0.47770797764925    0.63299743256541
H         2.65662186027961    1.98874529063124   -0.85116887421235
