35
 energy: -49.719352246012 gnorm: 0.120167568081 xtb: 6.4.1 (79825abcba525fcdf90b791dcacef51065a7a4e7)
C         3.72784824763708   -1.43731983871644   -2.58315756205237
C         3.03145419645768   -0.20159080651922   -3.13406000738711
N         3.98091859439834    0.94921218480968   -3.14125854726449
C         3.70251580385924    1.65409447417339   -2.08274012462581
C         4.17607000436561    3.02107738141444   -1.70292559727630
C         3.67565517645182    3.87727192161734   -2.87247170952970
N         4.34963649197003    4.79076150414949   -3.49771628485867
N         2.43247749744551    3.58942832388826   -3.41067721430228
C         1.25305120855822    2.95788408521121   -2.78777074813194
C        -0.02565279551204    3.76467452369427   -3.13220806636659
O        -0.19363761874092    4.89046817564498   -2.27034050055797
C         1.10388557837254    1.46632436294783   -3.16096067231811
C         1.83617650278306    0.39489700291403   -2.30320484341215
C         0.79954597110376   -0.50194173846119   -1.55797070861903
N        -0.15538067747412    0.16741182052535   -0.66098528197347
N         2.69111383829335    1.09373433830911   -1.32327349126149
H         4.71221551356960   -1.23016656042898   -3.01949033921971
H         3.26741146808669   -2.34092625877974   -2.99623804279506
H         3.76856093623544   -1.48706822499059   -1.49310470376685
H         2.64218580018228   -0.46960373385727   -4.12570187620822
H         5.24774486722845    3.17518205133047   -1.85269837764623
H         3.82423693296914    3.45727212154806   -0.76595087343668
H         5.28962177187372    4.88507091874065   -3.09307944160211
H         2.20798841694815    4.21321454397800   -4.18939474856238
H         1.43586924445024    3.14946909443740   -1.72173480514600
H        -0.90837002412824    3.12124481897426   -3.05847818754054
H         0.02595448442873    4.15590012125462   -4.15602374536062
H         0.45848715955819    5.58584025752983   -2.48024095260763
H         1.40819961294499    1.36113695208948   -4.21091246673272
H         0.02118755814706    1.33974068996221   -3.02617773906324
H         1.38315294424327   -1.30661531696627   -1.11148814429419
H         0.24238413767138   -0.94907150592401   -2.39063292465708
H         0.39006313446441    0.14827257561438    0.19722289654355
H        -0.85997982499444   -0.56579285558085   -0.56640182423529
H         2.27019913621144    1.69226587202022   -0.61556995675225
