35
 energy: -49.720026774318 gnorm: 0.106762670496 xtb: 6.4.1 (79825abcba525fcdf90b791dcacef51065a7a4e7)
C         3.49876955146360   -1.40996248971098   -2.36256584756232
C         2.93469492092088   -0.09009392509039   -2.86778977060240
N         4.03867765391552    0.89950152442162   -3.03453800131165
C         3.83680860410427    1.78419027724563   -2.10104824866419
C         4.40846835968665    3.16584778719508   -2.13823149678350
C         3.77235403458983    3.80668029999896   -3.37759200360668
N         4.45396724754649    4.57013029959795   -4.17269724455193
N         2.47322498849315    3.45082540501742   -3.69952503315546
C         1.37923037537346    3.12798811430903   -2.76311760830128
C         0.11416003330782    3.89374177981021   -3.22986187934491
O        -0.69373799008961    4.00536291968801   -2.05798838996463
C         0.96995520669910    1.63907598083473   -2.80677592560697
C         1.89550024008613    0.69575349851109   -1.98612937326194
C         1.09234281501700   -0.39454192682235   -1.21121609502280
N        -0.26077293806087   -0.02393551032619   -0.76823685692940
N         2.82957672507014    1.51733308729806   -1.19110419714486
H         3.49911638276260   -1.65197622724040   -1.29312351526239
H         4.56238806124309   -1.57087768766596   -2.56741711191509
H         3.00015186987596   -2.19864600556142   -2.92975751165904
H         2.39917577175733   -0.17774222284509   -3.82290831826926
H         5.45155911528495    3.04104611363057   -2.43998200441825
H         4.31404751735869    3.67031853980479   -1.17460918450161
H         5.43850674122311    4.74526404632170   -3.93561557186301
H         2.21853851117000    3.87090471115746   -4.59650539768053
H         1.59186148132128    3.49101387666811   -1.74844515009012
H        -0.29130555716788    3.33761747103747   -4.08130242970307
H         0.42293458982755    4.89668684791895   -3.55029721043621
H        -1.50117896377319    4.53349088801851   -2.20626915356226
H         0.81504193092523    1.27558615086598   -3.83144524998647
H        -0.04900270876455    1.58189943244269   -2.40072114949123
H         1.77365931523627   -0.71927660583784   -0.42521445873261
H         0.97312727830534   -1.26549672261544   -1.86765048472219
H        -0.65153084771121   -0.82994357987856   -0.28651516828152
H        -0.33975719334342    0.72690433252275   -0.08048973865758
H         2.60851642159466    2.27595243108095   -0.54932346519848
