35
 energy: -49.721967901409 gnorm: 0.100204691364 xtb: 6.4.1 (79825abcba525fcdf90b791dcacef51065a7a4e7)
C         3.64779002232278   -1.50924532187024   -2.71699636418048
C         3.06636507904158   -0.18584120303047   -3.19242356773145
N         4.08395353753142    0.88928541133672   -3.00668582872160
C         3.69673902660496    1.56647485245865   -1.96442491619614
C         4.19133963521832    2.90962352674003   -1.53028573891515
C         3.57919675837728    3.86613649689768   -2.56066731771285
N         4.14622332593554    4.84938750099396   -3.18624155997806
N         2.30567508706762    3.68652017260133   -3.07436990915199
C         1.09595997657948    2.94327403527826   -2.67177644241235
C        -0.11823702334663    3.71986278441926   -3.24384932526931
O        -0.08956210581706    5.11861483552324   -2.95903991380720
C         1.20675462615394    1.51509473004454   -3.24996323800086
C         1.89244301634811    0.44315970661507   -2.35512333249964
C         0.76509959667876   -0.47679276537092   -1.79202401403387
N         0.23706768046553    0.19080042901845   -0.59202251113544
N         2.63334736322582    1.06148244963590   -1.23785223733679
H         4.73271768378151   -1.48349470638196   -2.87366977960407
H         3.24118171934457   -2.36957768994141   -3.25888194822010
H         3.40952952338286   -1.72306572321685   -1.67303255407768
H         2.87399374888197   -0.21918071345527   -4.27343983502953
H         5.28006027283890    2.89922703327897   -1.62644404712419
H         3.89645647870274    3.13880905783535   -0.50437545758959
H         5.14579668393008    5.06035690554812   -3.07424795605602
H         2.20473749096884    4.33729654051758   -3.85680668965352
H         1.01787319169455    2.90382717623470   -1.57683065363170
H        -1.10412684448399    3.44549017396643   -2.85478825087217
H        -0.04606085955816    3.45124125263196   -4.30524105569509
H         0.81871336233127    5.47505884636268   -2.98820496510709
H         1.70321781171713    1.61333322912127   -4.22461379996142
H         0.20868635832233    1.06179808682709   -3.31929413465541
H         1.20631409491820   -1.44283804315559   -1.54803702200679
H        -0.08421621426004   -0.66516892471711   -2.46049823494835
H         0.88836692117076    0.11680224337169    0.18562143513971
H        -0.72545552605491   -0.06045771180248   -0.36090888229577
H         2.13859386770959    1.79038298573395   -0.72777725730963
