35
 energy: -49.712363181271 gnorm: 0.120308975942 xtb: 6.4.1 (79825abcba525fcdf90b791dcacef51065a7a4e7)
C         3.60469125558872   -1.36554282157459   -2.78990641946320
C         3.07732816895007    0.03861943918648   -3.04622837266567
N         4.15512985326026    1.02166101331379   -2.73341088048287
C         3.67972571639819    1.73626377056827   -1.75455326436925
C         4.02932269440768    3.16088842493874   -1.46235213022734
C         3.59347945315523    3.79431866266772   -2.78905066622046
N         4.41768665812523    4.32107659351781   -3.63925851423370
N         2.27155291746885    3.81100582123269   -3.20165412769270
C         1.08034400098065    3.05604993151602   -2.76694746903016
C        -0.18035890033452    3.85019204984100   -3.19659651887608
O         0.13010347181764    5.21830849079133   -2.93142397457571
C         1.02653417754242    1.55729709373344   -3.13723916314094
C         1.80829191103349    0.53678136050832   -2.26125164164755
C         0.85239263417840   -0.59959985002240   -1.78251283213453
N         0.25552745699378   -0.37697741636423   -0.45635553653275
N         2.52689910830254    1.23508120976036   -1.17702936722097
H         4.67640651003799   -1.40961652802472   -3.01741817628565
H         3.10147136227257   -2.10912883519974   -3.41679688262678
H         3.50038712178902   -1.72802689537249   -1.76517542908442
H         2.98188187109210    0.09011484187995   -4.13936726732139
H         5.10335765345482    3.31265968642577   -1.32788453563496
H         3.47060383359936    3.52345221710326   -0.59727714190180
H         5.33604074361812    4.41530521156917   -3.18765657513315
H         2.38773422106353    3.85879609435321   -4.21660417538859
H         1.04998436513484    3.14180635844055   -1.67228587207421
H        -0.95841695536635    3.46747806971378   -2.52817803580043
H        -0.48564417390735    3.59040872142080   -4.21798422564220
H         1.01898588939433    5.34965108939675   -3.31287440562578
H         1.42145338594086    1.61075782043865   -4.16059197194036
H        -0.02134044398172    1.22985927957509   -3.10306140218434
H         1.43422965901777   -1.48826095733568   -2.02580374734949
H        -0.05678730582498   -0.50243286070967   -2.38883875344824
H         0.97423106077567   -0.67631438328617    0.19805950713123
H        -0.38452384883397   -1.17279279590016   -0.45905670248047
H         1.96178527905876    1.83500359021663   -0.57954047236098
