35
 energy: -49.719530825578 gnorm: 0.109248402895 xtb: 6.4.1 (79825abcba525fcdf90b791dcacef51065a7a4e7)
C         3.68449997410427   -1.44872119323196   -2.44866126594625
C         3.04455857423484   -0.23744155087822   -3.11105170386700
N         3.95544863385554    0.94394423441031   -3.08893963703328
C         3.68247001267407    1.63746830201944   -2.02154304874713
C         4.31723767524872    2.95976278454423   -1.72869108236779
C         3.65451957131553    3.93019777800885   -2.71377120290440
N         4.15407124759236    5.05986992622273   -3.10611515894846
N         2.42673372127904    3.62157073910808   -3.27528799406836
C         1.20654998609441    2.94847502918921   -2.78948887210559
C        -0.00836850505103    3.74445611921216   -3.33264538590118
O        -0.02984840219989    5.10162302213075   -2.88983327177692
C         1.00971147577450    1.44746716986280   -3.09689990703604
C         1.87366142072613    0.42918160141213   -2.29900473836213
C         0.89734900998602   -0.65919665235818   -1.75444670988994
N         0.09853280649365    0.00372509288086   -0.71188763627636
N         2.65829906166626    1.11422568406537   -1.25276607413428
H         4.60802854932510   -1.83195359382225   -2.89866746635452
H         3.02660363363079   -2.31491456267784   -2.57524537708775
H         3.67161459373801   -1.16789355928445   -1.39352265881911
H         2.76375600720764   -0.57952878485384   -4.11645742777740
H         5.40141553179337    2.99613899857628   -1.86249051227749
H         4.02578885981516    3.31602640078021   -0.73868712423536
H         5.00287444691391    5.32225131566237   -2.58950437450367
H         2.20232190319501    4.40735812470659   -3.89017263930217
H         1.06754537674785    3.06784572555343   -1.70644305647166
H        -0.98602997545480    3.35072689852377   -3.03636352148928
H         0.02498024647688    3.68015635327702   -4.42748452049477
H         0.87317424820948    5.47231662038181   -2.88793344582627
H         1.05836572123350    1.35716569708514   -4.19031136620707
H        -0.05622563518632    1.22197574009105   -2.95777201842675
H         1.51162977922618   -1.41168808496729   -1.26062573839342
H         0.33869874157422   -1.10253622616578   -2.58813766926258
H         0.15273141009894   -0.27319224558530    0.26523867972176
H        -0.89746383235710    0.08444017775971   -0.92276878057822
H         2.15692462085495    1.69289036946057   -0.58192753719083
