35
 energy: -49.708287748740 gnorm: 0.117259586279 xtb: 6.4.1 (79825abcba525fcdf90b791dcacef51065a7a4e7)
C         3.55269064598364   -1.37383614945788   -2.83941324668539
C         2.93682585802112   -0.05954738391292   -3.29640347130471
N         3.94565996203509    1.03380660887786   -3.18365235326415
C         3.73534478069422    1.64545020247948   -2.05383463864494
C         4.37880993871337    2.92981864266743   -1.63729502562993
C         3.67743920825012    3.90683444889726   -2.58852653454104
N         4.27002210873072    4.92521649826602   -3.12833049149165
N         2.35481429310578    3.80537761055579   -2.98649595283576
C         1.18439644520011    2.99259561189497   -2.60255009396451
C        -0.02043260180248    3.70039427599714   -3.27488919184347
O         0.05278149091887    5.07466173723226   -2.89479103782557
C         1.03732209989041    1.52301103058856   -3.05527718810407
C         1.85150546200393    0.44949844083017   -2.27769898677763
C         0.99283210098848   -0.68239907817365   -1.63288535380156
N        -0.10025844616647   -0.13105307932152   -0.81699772766184
N         2.74081595511922    1.07555297313110   -1.27933056176852
H         3.91862606411754   -1.22378340487854   -1.81674363705278
H         4.39864325215065   -1.59995361801004   -3.49696717105134
H         2.85633087893293   -2.20974423646385   -2.93262491466584
H         2.73229163037303   -0.00106228922020   -4.37411385345808
H         5.46075618529944    2.77597790944625   -1.65710596529213
H         4.10825030822236    3.20125235306089   -0.61499603403441
H         5.25214634036878    4.90645460810507   -2.82620873683585
H         2.14514126268413    4.73250151758670   -3.36383409985987
H         1.07338251454024    2.90851113927577   -1.51297880822877
H        -0.88852912536416    3.11848888759014   -2.94866512046460
H         0.01756647915253    3.66278129578491   -4.37081832494679
H        -0.82399028210922    5.49220062846644   -2.79579713362077
H         1.26756302444753    1.52355055999556   -4.12908305153053
H        -0.03909367637635    1.34272247656434   -2.93178634828092
H         1.61233089427439   -1.40315454148810   -1.09980359371007
H         0.60797656729033   -1.34485050664814   -2.41820377926233
H         0.16852667176638    0.75763915874931   -0.40181438963660
H        -0.21696470235433   -0.94357291140435   -0.20939073173821
H         2.46033557502144    1.59033937921819   -0.44711713133847
