35
 energy: -49.730884070352 gnorm: 0.110555014711 xtb: 6.4.1 (79825abcba525fcdf90b791dcacef51065a7a4e7)
C         3.54691965689790   -1.46049899886382   -2.99683216239936
C         2.96242697227561   -0.07321225481051   -3.21884169546670
N         4.01586488257538    0.96230597244574   -3.00943163770422
C         3.70809973249805    1.65674628418435   -1.95214185279490
C         4.30080926881278    2.99268282973074   -1.63414202310544
C         3.65065032773478    3.93440322990103   -2.65481739841744
N         4.20077735896949    5.03928493531794   -3.05009130906817
N         2.43510991669845    3.60997755077121   -3.23379867267042
C         1.22812186762841    3.00162045946370   -2.64135588250131
C         0.08206042502992    3.76601603515866   -3.35330700826114
O        -0.07843965961640    5.08382021375521   -2.82787592011347
C         0.98407694692527    1.49143584912756   -2.85596257349813
C         1.87951780804730    0.41050964844079   -2.18533907000515
C         0.98398618151030   -0.70150404016463   -1.55625623624441
N        -0.12549314025552   -0.14101158669383   -0.76923284731545
N         2.72328180507690    1.07618276103837   -1.17316390427921
H         3.96634422556894   -1.59824663408985   -1.99314580712031
H         4.27290569636505   -1.54723992775970   -3.81203910898154
H         2.80833147179200   -2.24654688268998   -3.16701994916445
H         2.68149911202570    0.02272560191463   -4.27647579140904
H         5.36996081783950    2.96760636642191   -1.85987035394665
H         4.10684693750079    3.26237218951224   -0.59413228447430
H         5.13723631236196    5.30249061323280   -2.71848166638842
H         2.18279184072341    4.17305888958656   -4.04938471223898
H         1.22147942288394    3.23847011940533   -1.56878048166838
H        -0.86452574588829    3.32242982244037   -3.02798641120082
H         0.12361323703267    3.82725119507789   -4.44804119591812
H         0.58499770708139    5.71853354699608   -3.15932290671960
H         1.10799841648016    1.31881602238222   -3.93342072769415
H        -0.08218002211361    1.28933448833700   -2.68662273306271
H         1.72444738678134   -1.22716012952137   -0.95388903619594
H         0.61943087675924   -1.22224874117848   -2.45046264389520
H         0.20129793021816    0.33129704467643    0.07012922554511
H        -0.86805894833101   -0.81452380356494   -0.57436777101598
H         2.20716387089548    1.73998081329472   -0.59936261681692
