35
 energy: -49.723649204348 gnorm: 0.112434232209 xtb: 6.4.1 (79825abcba525fcdf90b791dcacef51065a7a4e7)
C         3.54777543116085   -1.43249915244501   -2.32014664582618
C         2.95554085439660   -0.15915877870168   -2.90610474809782
N         3.97920712469126    0.88763604715862   -3.19282748377812
C         3.82944769825210    1.73061552269130   -2.21212055020347
C         4.47171020190437    3.08081585032745   -2.17196057873412
C         3.72663576845809    3.84593608663380   -3.27231383551867
N         4.26138035375097    4.84651226817990   -3.89884422319177
N         2.52189837717551    3.34141796199297   -3.73283431967865
C         1.44280690573692    2.98937445894672   -2.78968324495573
C         0.24087517519037    3.92655236956276   -3.07549701114168
O        -0.80731394557979    3.72849248460586   -2.12654084580806
C         1.02941630573811    1.51213780769789   -2.97175910426965
C         1.89398148151045    0.61467440005737   -2.04061028385338
C         0.95581958153194   -0.27259920071286   -1.16488527477602
N        -0.15816328135807    0.56803440125769   -0.69918227704558
N         2.88163008452453    1.38976860131967   -1.26386316205513
H         4.30211942191662   -1.20202612268430   -1.55848727628615
H         4.00275035531530   -1.95273770541105   -3.16955334323465
H         2.84315952017366   -2.12675026885492   -1.85767561102261
H         2.49861430850253   -0.45771728154503   -3.85941233380757
H         5.51779054147156    3.23822801829636   -2.44692320322506
H         4.19234990623985    3.55588266157632   -1.22949395404332
H         5.24534900477144    5.07017847603312   -3.70396816798035
H         2.13433610858969    3.81366418176676   -4.55300783343128
H         1.61513614855471    3.23375893806762   -1.73273540356570
H        -0.03037393805631    3.64271175235098   -4.09749799919775
H         0.58120387943305    4.96960628316965   -3.06391111860702
H        -1.68170447499385    3.65681399640000   -2.55452525632349
H         1.13992211269184    1.21903059946918   -4.02434963375027
H        -0.03121368167824    1.34059113754215   -2.74359113025585
H         1.52412349588669   -0.81873005089139   -0.41241262337519
H         0.54871321898573   -1.01844195328537   -1.85890522430272
H        -0.88184264976741   -0.04775764783542   -0.33657386528176
H         0.18583837271862    1.14618637961637    0.06919148199567
H         2.57877982836620    1.85785370670962   -0.41214049871003
