35
 energy: -49.726621445168 gnorm: 0.113643847096 xtb: 6.4.1 (79825abcba525fcdf90b791dcacef51065a7a4e7)
C         3.73180456112631   -1.21109409346887   -2.85728355957322
C         2.97491372703066    0.08191543395795   -3.12322915577353
N         3.95912234697102    1.18137097339347   -2.90319981381144
C         3.61995072385116    1.73143865115803   -1.77305973562004
C         4.04842998956941    3.12937868892672   -1.45790240464192
C         3.70328915331006    3.75909087372933   -2.81276866893433
N         4.42220346101648    4.51550572458339   -3.58130209307365
N         2.47994845121198    3.46589876873348   -3.39198002436953
C         1.26325451418659    3.03283401019253   -2.67782474131177
C         0.07426463360337    3.82015202837061   -3.28697599134013
O         0.20585479526301    5.19852148646765   -2.93879840659465
C         0.88864014209456    1.53897562266071   -2.79750233269020
C         1.79747781440154    0.45563196015904   -2.14917196095972
C         0.89490530809815   -0.70830461445865   -1.63447686808370
N        -0.26020299189710   -0.41109717506946   -0.77314389023931
N         2.53113039979799    1.19929101098395   -1.10596439332755
H         4.64153243613735   -1.19412005825347   -3.46915344513452
H         3.21736471448447   -2.06644787307473   -3.30768741497306
H         4.14548674540976   -1.31667484904671   -1.85226245743081
H         2.61121685546069    0.11403246474575   -4.15928296401154
H         5.11113913590719    3.19612841043044   -1.21120239772077
H         3.46012781626540    3.56676594070167   -0.64884928224246
H         5.34657489228098    4.78970255638023   -3.22556184803853
H         2.48475200677036    3.73935830300155   -4.37742530847580
H         1.37459889124035    3.32120981877913   -1.62378408106728
H        -0.86583062208717    3.43153834931327   -2.88221938048744
H         0.16060096743337    3.80121255367172   -4.38064260777438
H         1.09806518519580    5.49152328127286   -3.20521505339477
H         0.67908985100286    1.24173154716207   -3.83374788291087
H        -0.07207783193155    1.51939789190815   -2.26546608435789
H         1.55450572563883   -1.46830371547318   -1.21641944777453
H         0.58500598861137   -1.19297995284137   -2.56867862928798
H        -0.00109426856150   -0.28394889477230    0.20209583215186
H        -0.78957220830049   -1.28442004502947   -0.78153920956097
H         1.92258937306348    1.63144531138884   -0.41374046900181
