35
 energy: -49.717638376367 gnorm: 0.124163368062 xtb: 6.4.1 (79825abcba525fcdf90b791dcacef51065a7a4e7)
C         3.38531600153876   -1.55802241351313   -2.70993248843067
C         2.88988473523032   -0.18011376606065   -3.12393735475995
N         4.02618085401023    0.78663999193596   -3.11392314688838
C         3.90329495655242    1.63972402340908   -2.13823103726499
C         4.58576136703759    2.94679376785733   -1.88730634862667
C         3.90266889834003    3.83295745737922   -2.93583902270902
N         4.47011320974106    4.65817113529204   -3.75844108074488
N         2.55271497557910    3.80001467252542   -3.24332722525759
C         1.36544821667038    3.17059578594053   -2.63329736152575
C         0.18174574701992    4.00500249992537   -3.18759487007124
O        -1.06439408897621    3.81020611730782   -2.51853894398610
C         1.03495125027914    1.69460454375783   -2.94713346577667
C         1.84224106650293    0.57671639866594   -2.22702174435926
C         0.82487119522952   -0.30372078461829   -1.43703096101385
N        -0.04484145885433    0.54055087950025   -0.60318012216475
N         2.81824605282092    1.27055441851485   -1.36356358952316
H         3.70342808804202   -1.49329628729181   -1.66260593723630
H         4.22691850987536   -1.94798123209562   -3.29198008702500
H         2.62014436775573   -2.32754469800862   -2.83115741865340
H         2.48971853746013   -0.22123833538258   -4.14613605774328
H         5.58868442976514    2.88495570316534   -2.31740927808463
H         4.43392329841190    3.41387933737331   -0.91224211359796
H         5.48871622967045    4.73473571295344   -3.64537775544799
H         2.35156137901078    4.51799360831960   -3.94329084138062
H         1.25697061308122    3.29029683975413   -1.54680569904005
H         0.05246069083761    3.90869555310502   -4.27047895267618
H         0.49079376464491    5.02672629661711   -2.93364774831537
H        -0.84652367563707    3.41979783847986   -1.65079409681231
H         1.00192334799881    1.57553480848058   -4.03837209390112
H         0.00874213443307    1.56095704003105   -2.57908718456809
H         1.45042699708615   -0.99912402131973   -0.87798030417490
H         0.34466492083677   -0.98860890485494   -2.14696820842806
H         0.48393992566932    0.61068567036482    0.26276900907478
H        -0.91228088279749    0.02335630286833   -0.45134566939964
H         2.43489906670598    1.75864323667100   -0.55667582644495
