35
 energy: -49.721140910999 gnorm: 0.109638832667 xtb: 6.4.1 (79825abcba525fcdf90b791dcacef51065a7a4e7)
C         3.63428346718810   -1.37696434762003   -2.80810266588629
C         3.07922730107478   -0.01597980936088   -3.20195314039735
N         4.11675871334811    1.03352557265982   -2.98298045837174
C         3.72207387848021    1.65792475748115   -1.91098326521865
C         4.22084044796386    3.03391207916397   -1.60268832315631
C         3.60177330789104    3.87828272774901   -2.72300805049766
N         4.34804745012614    4.77881754189032   -3.28135988394213
N         2.31769331504042    3.64339376143560   -3.18558300439201
C         1.13371178481020    3.00250936613142   -2.58113126543594
C        -0.08617146591750    3.77133977785389   -3.15158414739202
O         0.09694609460359    5.17243516856410   -2.94702210976923
C         0.96482000927653    1.49767973545484   -2.88647515028260
C         1.90261118264199    0.42806298712885   -2.25685666975642
C         1.01878596549637   -0.67349541913432   -1.59374382126185
N        -0.25013207195228   -0.10119203337710   -1.11748986044778
N         2.67030678074866    1.11185591087419   -1.19731541181865
H         4.35081354351400   -1.84162834581071   -3.49581605134734
H         2.87196825333706   -2.16138446262258   -2.75611535411867
H         4.06844594880264   -1.37835896748128   -1.80618018213688
H         2.85229616895680   -0.00200753498751   -4.27667238771422
H         5.29411997241558    2.94226695236244   -1.78799722594413
H         4.06827343997003    3.34845956463901   -0.56839765515015
H         5.32559479829480    4.77189094927370   -2.96426246719250
H         2.16436913782761    4.06633864507589   -4.10401368694453
H         1.25931289010005    3.23777882844391   -1.51556449893172
H        -1.10508022109157    3.55401824602965   -2.81509657036270
H        -0.16503846287693    3.56767638793631   -4.22686111337686
H         1.05563590107494    5.20481973743339   -2.76610124989117
H         1.02512587440958    1.32444950405120   -3.96926077491653
H        -0.09007786853567    1.30438810560117   -2.64929654730287
H         1.68538345834555   -1.13306430031311   -0.86443757890585
H         0.60620018569539   -1.34530506204554   -2.35671531095933
H        -0.19508762260921    0.36054239040521   -0.21296348187637
H        -0.98639390574888   -0.80887867960417   -1.12714440150207
H         2.18146146570466    1.60600212994276   -0.45360628494239
