35
 energy: -49.725099601327 gnorm: 0.122271952295 xtb: 6.4.1 (79825abcba525fcdf90b791dcacef51065a7a4e7)
C         3.59385766246837   -1.31591117071160   -2.83086829094536
C         2.96186867803143    0.03392636909764   -3.13748363515184
N         3.93086960516061    1.14503019411634   -2.90864418417104
C         3.53257640203091    1.71763806249138   -1.80941209948231
C         4.04541931644890    3.07678734646366   -1.45323754671937
C         3.62496807849953    3.83757571418732   -2.71646516467254
N         4.34713321231724    4.68389756945354   -3.38119191009895
N         2.40405780168989    3.54517713568939   -3.30117963299759
C         1.18385148486488    3.02438371474705   -2.65482236154236
C        -0.00086621843051    3.84821297925502   -3.22260852365958
O         0.21791943557023    5.25899240545159   -3.23934765637868
C         0.87098235764389    1.53638491088828   -2.92729986713504
C         1.77619273803153    0.49338713154450   -2.21126812076889
C         0.97351769789463   -0.74257212614471   -1.69900448056891
N         0.14403989206794   -0.34832087308082   -0.54964183579547
N         2.51568082606402    1.11203929133928   -1.09324137582743
H         4.46074237020749   -1.39846977738358   -3.49718102612055
H         2.98546561258132   -2.22148083489523   -2.92544507151960
H         4.05730864377264   -1.37347478061877   -1.84382863578281
H         2.72017765033941    0.20076515768303   -4.19600367757194
H         5.13544247431700    3.13838847172587   -1.40106515257457
H         3.64494134815097    3.63013571152686   -0.60153514547305
H         5.30054694483849    4.77406842660503   -3.00827229824483
H         2.39944831932244    3.64374851281190   -4.31910302042689
H         1.26838626529608    3.27588187215050   -1.58891316079826
H        -0.99914851197966    3.66848540677342   -2.81059147863438
H        -0.11500692326752    3.57466566006297   -4.27904739645179
H         1.03607893395075    5.35967556830725   -3.76217190710134
H         1.03063619924196    1.42670415415234   -4.00829523758578
H        -0.18382027954931    1.35150677201771   -2.68309435570610
H         1.66678877289826   -1.56208232805213   -1.51133029403124
H         0.39070586362372   -1.08356741507391   -2.56372020494539
H         0.72397544573507   -0.26495181935239    0.28169497457357
H        -0.34485421634265   -1.24296609697867   -0.48974554845309
H         2.00897737858048    1.60488103370661   -0.36070324745945
