35
 energy: -49.718243153875 gnorm: 0.126530578545 xtb: 6.4.1 (79825abcba525fcdf90b791dcacef51065a7a4e7)
C         3.40866275156794   -1.32771217413238   -2.35851913533413
C         2.99377926758226   -0.00767359851901   -2.99164970808998
N         4.16227382003368    0.91824235285549   -3.04806025757704
C         3.92403855420626    1.69977854342107   -2.03451520212992
C         4.43698157355571    3.10454507347194   -2.00852632779313
C         3.81215745948498    3.64255148738328   -3.30137826733091
N         4.47497936523345    4.16607526549928   -4.28435069702354
N         2.44532874775904    3.84616333677775   -3.39265450877152
C         1.37847658607325    3.17560919381579   -2.62448095624697
C         0.10353142416615    4.01127516369037   -2.90875032596882
O        -0.93168452466971    3.71550587827819   -1.97104331849561
C         1.10505723690002    1.70776992715188   -3.02066438471988
C         1.89122959697461    0.70675067566058   -2.12632373791246
C         0.96789020296297   -0.36545579652086   -1.46896978276725
N        -0.12534252227906    0.42257633587304   -0.87875833507638
N         2.86346758401427    1.34788309168849   -1.21898726539490
H         3.50840099029841   -1.04043499891787   -1.30504782687858
H         4.35293503411594   -1.68130242933018   -2.78567937899891
H         2.62372630237371   -2.06837221034963   -2.52478745593392
H         2.66302547714143   -0.17570619084045   -4.02561363760931
H         5.52622352905934    3.18983729989606   -2.03925649207783
H         4.10379019083754    3.60981213037837   -1.09986648500965
H         5.45037376020876    3.88441447454466   -4.44394560868530
H         2.04567835514534    4.24492942604068   -4.24539759483505
H         1.61671055164586    3.29690203476168   -1.55907374803418
H        -0.19020150415458    3.78599497820568   -3.93908881569837
H         0.28108064605268    5.08215557022337   -2.74871669311068
H        -1.36452765634509    2.84832450094740   -2.08727817714961
H         1.44451229516260    1.55787830177257   -4.05428568101318
H         0.04475164832091    1.42326292354770   -3.05577415502570
H         1.35689227185036   -1.11119345835422   -0.77615228602434
H         0.48100299151543   -0.87669347213777   -2.30876594855270
H         0.16751652738874    1.09252796918982   -0.17179657889907
H        -0.86341555409243   -0.24300103385532   -0.64370503827305
H         2.57864632523373    1.98087151695710   -0.47436925070149
