35
 energy: -49.718439089044 gnorm: 0.101104786157 xtb: 6.4.1 (79825abcba525fcdf90b791dcacef51065a7a4e7)
C         3.62183383315028   -1.45429466136210   -2.63174412484613
C         2.95433857949220   -0.21660634425532   -3.21317527271911
N         3.95728252782073    0.88786725760685   -3.22428890526868
C         3.72995986239538    1.59895808694306   -2.15775121395183
C         4.32311950778798    2.95656318311699   -1.95226412988975
C         3.56337665966513    3.99807011815413   -2.78255098017803
N         3.89930671937356    5.22112735161417   -3.04887180514804
N         2.31727108386122    3.61784655423903   -3.25229640788306
C         1.16894791233836    2.94269190845485   -2.61713730650448
C        -0.01614273040323    3.72286516980118   -3.24285425923726
O         0.01589008333332    5.13469415342110   -3.03271434797090
C         1.05290510288959    1.45500211475314   -3.01661784189741
C         1.86723113026282    0.37805290173893   -2.24395670975855
C         1.03292495111276   -0.64192513189120   -1.40856782732814
N        -0.01746276043934    0.01077807462876   -0.61159470574041
N         2.78067779733226    1.06159311797014   -1.30696955864016
H         4.48472326385867   -1.72036118139058   -3.25376351620169
H         2.87949015108517   -2.21636488772923   -2.37228909439834
H         3.99740882284826   -1.29233628641722   -1.61929136931867
H         2.45108642795615   -0.37853604850001   -4.17610334388440
H         5.32959597079141    2.83284230756430   -2.36014328758958
H         4.40530309470627    3.12527072110123   -0.87673746502484
H         4.79440048846940    5.60793458002503   -2.72424145341294
H         2.01026036431119    4.16002297485730   -4.06328021969514
H         1.26209356618677    3.08129623234164   -1.53147040805260
H        -0.96024261599160    3.31652465822399   -2.86577284265638
H        -0.04265175176826    3.55193818034795   -4.32636732812999
H         0.95493300145365    5.38358017124320   -3.12822042303660
H         1.40640488936376    1.39775194957080   -4.05480402089655
H         0.01235085614635    1.12252300498882   -2.90203432625362
H         1.84867577987386   -1.06740040582977   -0.82464595780720
H         0.58711599105047   -1.44260394058131   -2.01176640356320
H         0.35913649621174    0.52964937843428    0.17792546930051
H        -0.87533654951672   -0.50221943995318   -0.40211631822284
H         2.29692491868187    1.50698083979057   -0.52988114192546
