35
 energy: -49.722637525162 gnorm: 0.116008230905 xtb: 6.4.1 (79825abcba525fcdf90b791dcacef51065a7a4e7)
C         3.68451323983758   -1.34351258469920   -2.75288115895410
C         3.03472178292067   -0.02799004951104   -3.15618740073219
N         4.00666748086332    1.09892715630128   -3.05006886944016
C         3.71204793967876    1.70099654740006   -1.93403115713953
C         4.19017409807939    3.08070770305237   -1.61007525826161
C         3.53168058631963    3.90802898650427   -2.72059225339203
N         4.20057471366886    4.85322039057619   -3.30269076415989
N         2.40667842481945    3.39659477223864   -3.34574427049301
C         1.19252104123852    2.93020598419812   -2.64845642663513
C        -0.03739695337175    3.78651029801843   -3.04679858903138
O         0.30064860770556    5.16300746481635   -2.87525643143555
C         0.94477928234029    1.45153541080397   -3.02051676077543
C         1.82665278145000    0.42353798348836   -2.25535529649007
C         0.91951362498048   -0.68622359473739   -1.63905642995996
N        -0.04077625136134   -0.10476259311812   -0.68813666232092
N         2.66850380984459    1.10285466597386   -1.25067992866758
H         4.53825941910343   -1.66688966623853   -3.36018865226309
H         2.92774599300414   -2.13480646043094   -2.73557779173694
H         4.22225378369514   -1.34544082197260   -1.80252383603686
H         2.62849542946540   -0.10082511508620   -4.17421962102637
H         5.27702066872954    3.16701904507622   -1.68741875602864
H         3.71646058135344    3.33964668734640   -0.66111787762015
H         5.06277161867566    5.07392327011379   -2.78877996900028
H         2.20977365227652    3.91454329013359   -4.20531593457097
H         1.37648069019870    2.98319238203046   -1.56683210542425
H        -0.83172580184004    3.62753445577089   -2.31032322889215
H        -0.21745344729267    3.62875774300462   -4.11759881263001
H         1.14035604810747    5.29103526066472   -3.35626325044587
H         1.05443432551034    1.36533706385717   -4.10983572930360
H        -0.11875258183313    1.25461035451912   -2.82934836817480
H         1.69055441980925   -1.29644708519297   -1.16941109332410
H         0.46569267681407   -1.20991487229675   -2.48962958280182
H        -0.59906022556623   -0.73428080958155   -0.11680282949980
H        -0.80180024680294    0.27621412935658   -1.25266681978998
H         2.15332462538242    1.57955770744408   -0.51338888495858
