35
 energy: -49.720067204743 gnorm: 0.103586371769 xtb: 6.4.1 (79825abcba525fcdf90b791dcacef51065a7a4e7)
C         3.73087010785621   -1.30654221359561   -2.58668149214012
C         3.13414822089517   -0.00418233190729   -3.09977619978449
N         4.12389971158660    1.07973774797006   -2.83258477697998
C         3.71959887020808    1.76217758889243   -1.80028389000539
C         4.22202487546670    3.16281451182539   -1.64882678795992
C         3.68786647113100    3.82658864821683   -2.92373889624092
N         4.46835426614104    4.14159679185843   -3.90926082806784
N         2.32791973218289    3.76607842659304   -3.17848035700893
C         1.19451939823797    2.97872629715754   -2.65561587109557
C        -0.15883788147134    3.70454204864349   -2.87066793825110
O        -0.14427675330148    4.90199043149648   -2.09326758977971
C         1.15682817943834    1.53526169378446   -3.20448822124279
C         1.87676977867280    0.49632107596888   -2.29771471346882
C         0.83127473478265   -0.57894258393996   -1.86754644771786
N        -0.14894854121928    0.04865739822989   -0.96766725091404
N         2.59630777762676    1.20192611566537   -1.21885256572812
H         4.68639479864039   -1.44844658875009   -3.10544289890309
H         3.07520018261217   -2.17721287008751   -2.69237745533173
H         4.00052193279212   -1.25416258479028   -1.52985041019774
H         2.88002519120464   -0.03868371824786   -4.16792673506049
H         5.30106300518312    3.11522770319226   -1.81639574408293
H         4.00490749287559    3.57728685250936   -0.66239548825210
H         5.40208270486778    4.45230243480426   -3.61293200513351
H         2.16980046502222    3.94984307237285   -4.17202675967850
H         1.33654770170829    2.95600263606059   -1.56663860404664
H        -1.02542237380003    3.18411051778412   -2.45018021042404
H        -0.22842650214138    3.84771887034636   -3.95629087102622
H         0.53448775372815    5.47352881746117   -2.50007206213731
H         1.65553273439221    1.46779675554064   -4.18060935178403
H         0.07715802051119    1.35523712035876   -3.29574815874422
H         1.31605180523349   -1.41421698395880   -1.36281758155858
H         0.42814574659849   -1.01331734995130   -2.79084828901828
H        -0.57151370308230   -0.64212906358085   -0.35232239925803
H        -0.91275081193260    0.49241754372004   -1.48018857683388
H         1.91522462811194    1.49475626813826   -0.52126406254773
