35
 energy: -49.718503586360 gnorm: 0.117078612254 xtb: 6.4.1 (79825abcba525fcdf90b791dcacef51065a7a4e7)
C         3.63822707522546   -1.47940816570259   -2.40094226488905
C         3.02390485209563   -0.24018835876927   -3.03531352073098
N         3.98970983145708    0.89692352528881   -3.02640886767976
C         3.68206819783943    1.66695199285082   -2.02279480823449
C         4.34469847102433    2.99343188545763   -1.82651156979266
C         3.62478728440181    3.96985838212525   -2.76440353210934
N         4.21239990311492    5.06349928267849   -3.13629837893759
N         2.47682252393387    3.56126710668107   -3.42261314628049
C         1.27207413109624    2.96357401114246   -2.81495269034719
C         0.07585338571673    3.79810316887208   -3.34149693703684
O        -0.17093246865760    4.89212295702173   -2.45794535192959
C         1.03457463296041    1.47206291332925   -3.13939089469647
C         1.84253575760171    0.46459180976355   -2.27212366523068
C         0.91224244900096   -0.66064076814887   -1.72193957822958
N        -0.22966127664949   -0.05598583936583   -1.01841256401039
N         2.59059845684374    1.25858514109783   -1.27737058454416
H         4.60706087674516   -1.83321566045810   -2.77304304679625
H         3.15307555832828   -2.45970110925842   -2.45381775327271
H         3.70424691672061   -1.31671382271778   -1.32320408155889
H         2.78307413282369   -0.46584762135740   -4.08306962902171
H         5.42764149694001    2.94150321602129   -1.96509341224405
H         4.18677024763304    3.21960642686574   -0.77016042199319
H         5.14617236203859    5.25152705905531   -2.75040706523428
H         2.29269340762593    4.31712358491253   -4.08645277429046
H         1.25470264190113    3.21683526305391   -1.74625402048584
H        -0.79740089367629    3.13782938477309   -3.33184869545914
H         0.17986473422613    4.16020191708033   -4.37202372497767
H         0.45709788656497    5.60866133139653   -2.67011955329969
H         1.12926477806098    1.33407683607565   -4.22477737451617
H         0.02100909617474    1.31913693223114   -2.74477282534313
H         1.38179030945485   -1.44153313426874   -1.12429816363258
H         0.57115845239072   -1.17764499600276   -2.62750517122363
H         0.13854693649303    0.67626771776224   -0.41622988633804
H        -0.69398056780752   -0.71664722282650   -0.39316923982975
H         2.18837218294558    1.83019253074814   -0.53728108237911
