35
 energy: -49.723074993701 gnorm: 0.116261670546 xtb: 6.4.1 (79825abcba525fcdf90b791dcacef51065a7a4e7)
C         3.65473963196969   -1.42838102187404   -2.74230787208026
C         3.02306045535050   -0.11046844324772   -3.16606757196482
N         4.02717202873446    0.98453270588768   -3.02963284259217
C         3.77926760681474    1.64961984580559   -1.93828921060079
C         4.37098226868750    2.99241332380592   -1.64857488801511
C         3.71345959936521    3.83572759822682   -2.74757770624029
N         4.34807315259824    4.78487033348382   -3.36079752322931
N         2.42752106474384    3.67998866406684   -3.23759539844060
C         1.24839064595684    3.05679808258583   -2.60577901327701
C        -0.01069113252849    3.79994496461221   -3.12257455369773
O        -0.09086171646832    5.08923997542267   -2.51451451173701
C         1.09960823820438    1.57517707777522   -3.01679547720856
C         1.87611831237166    0.46320038628206   -2.25489547057866
C         0.91724830936387   -0.64300804188203   -1.71529583644024
N        -0.27558530494123   -0.08772659018127   -1.05703111774991
N         2.68421793231557    1.17049423247401   -1.24184692923705
H         3.99846488579366   -1.56313524708809   -1.70984871001385
H         4.52335661003784   -1.65267731817892   -3.37027108304142
H         2.91618419540189   -2.20905288241212   -2.93578908354680
H         2.80186279593287   -0.09283099048954   -4.24192765973119
H         5.45606573631508    3.02977420694007   -1.77453193155073
H         3.94142917708360    3.43125051871550   -0.74586780649960
H         5.29373629521172    4.91279310586326   -2.97928139483364
H         2.37682908772659    4.38241415759148   -3.97917098511216
H         1.30947665271103    3.15021593732561   -1.51302950478705
H        -0.87988149165993    3.24074134562995   -2.76142772570923
H        -0.10791342921051    3.88962006192990   -4.21180617715825
H        -0.88682915193462    5.62386730807266   -2.69748094731458
H         1.37841724580203    1.54921493610710   -4.07870965262414
H         0.05051548136080    1.28962248633414   -2.86094990884162
H         1.46839504265930   -1.20956190903274   -0.96516428166318
H         0.66050082308267   -1.33069626704280   -2.53067693379276
H        -0.09092088513662    0.20193863541546   -0.09974869094901
H        -0.95160308657177   -0.85222795513317   -1.09618092380885
H         2.38927008523904    1.57756961523447   -0.35666397059242
