35
 energy: -49.724880648886 gnorm: 0.110817892078 xtb: 6.4.1 (79825abcba525fcdf90b791dcacef51065a7a4e7)
C         3.64773962823678   -1.41322445636235   -2.72191543760414
C         2.89092529742800   -0.16429501383512   -3.14957391676636
N         3.84559036351024    0.98216884545268   -3.13874574057651
C         3.68997487641985    1.61857121018147   -2.01375495163628
C         4.21841916057050    2.98515807640419   -1.71318563350307
C         3.60732298441141    4.02907881985698   -2.65558318089922
N         4.07613528155027    5.21476030655773   -2.88800358865982
N         2.48739628885702    3.60730748515567   -3.35263625280415
C         1.29401818392618    2.89756593868028   -2.85261365118316
C         0.07946104744806    3.73071576963529   -3.33773648870349
O         0.25977363785361    5.10451893719295   -2.99335560692248
C         0.91127521137282    1.41172904802443   -3.03168929918232
C         1.78867941622217    0.43324573353688   -2.19941291787469
C         0.96215520667655   -0.72088117743205   -1.55199853275416
N        -0.17655309542585   -0.15240943729286   -0.81397057468473
N         2.65787386724614    1.13168004246443   -1.23181409680030
H         4.40691228767028   -1.58027056885362   -3.49523953324960
H         2.92380088175151   -2.22583697235713   -2.60060725962887
H         4.15787514435367   -1.31264350806282   -1.76171082549363
H         2.49976583742305   -0.30113641521958   -4.16691512707209
H         5.30310828226244    3.05970222250571   -1.82525624826437
H         3.92518720806560    3.19687316898642   -0.68305663664412
H         5.06992654680919    5.29946767432142   -2.64021103784024
H         2.34561743268142    4.24094924554663   -4.14276438994391
H         1.30973998666399    3.08601557063756   -1.77057877901669
H        -0.88019309119298    3.51904611484332   -2.85515231294920
H         0.03644944271412    3.66719378922616   -4.43228401788857
H         1.20745916266086    5.30710575425550   -3.11047942895850
H         0.93380292718458    1.09122729204029   -4.08185182764634
H        -0.05991395779375    1.37096130355485   -2.52026533241458
H         1.57050507575367   -1.25118425689272   -0.81978787561882
H         0.67144460999086   -1.49718049999700   -2.27069695458417
H         0.05996929976055    0.44585255899630   -0.02622932328550
H        -0.70853519461524   -0.92874109254389   -0.41736082402256
H         2.24267687351237    1.77973893029435   -0.56556742926563
