35
 energy: -49.726405401378 gnorm: 0.099437224754 xtb: 6.4.1 (79825abcba525fcdf90b791dcacef51065a7a4e7)
C         3.60216610263535   -1.42912177884719   -2.85702746799988
C         3.02029047568880   -0.06639332612993   -3.20325907956289
N         4.00342067333396    1.04393649548874   -3.04045648875800
C         3.76097069772287    1.69573093100254   -1.93990643561044
C         4.20085767656060    3.08582682988941   -1.60630826026520
C         3.62623029724440    3.92399123360361   -2.75461397022896
N         4.29960139479888    4.87750691655991   -3.31766282796275
N         2.43917302410025    3.49735004216058   -3.32635007161864
C         1.22349867214261    3.04266716509390   -2.62399238526745
C        -0.03317257900267    3.79925848640328   -3.12696232052425
O         0.05423863179651    5.19835904349118   -2.85618037365978
C         0.93709069579027    1.54221218987363   -2.85394205064482
C         1.88784464598116    0.46851405334200   -2.25128885453058
C         0.90942688022712   -0.67833093389332   -1.84911753971048
N        -0.08337374553914   -0.29832919769358   -0.83203958921710
N         2.74668278485939    1.08747667099965   -1.22228971756353
H         3.76245596918402   -1.46268680144413   -1.77284195645213
H         4.57180553620537   -1.44010987035674   -3.36577171369053
H         3.12137160376259   -2.34227106017097   -3.21387854617811
H         2.73843126893748   -0.07259556759274   -4.26497058564108
H         5.25372256037527    3.37919704428448   -1.59755725427317
H         3.71615538373431    3.50453251057190   -0.72215711969305
H         5.23925765196333    5.04358477989305   -2.93600614197448
H         2.25075441082973    4.09301512302864   -4.13603342696011
H         1.37522269555737    3.26850625136998   -1.55978545006540
H        -0.89913036744275    3.38377994583822   -2.60148893178674
H        -0.16882133699593    3.78277227232496   -4.21565279141229
H         0.09209809478869    5.38562609230529   -1.89891083368621
H         0.83976462334778    1.42546295791452   -3.94158511960223
H        -0.04228433446270    1.27327393241292   -2.43570571688374
H         1.50948383789009   -1.51431640637938   -1.49064398878075
H         0.28688784325365   -0.93681813230351   -2.71474460259632
H         0.41836751826532    0.17763149700342   -0.08630930433247
H        -0.43182219545939   -1.16342260853403   -0.41587597690656
H         2.36594416778070    1.70201340625190   -0.50560556416027
