35
 energy: -49.725875959422 gnorm: 0.117712140780 xtb: 6.4.1 (79825abcba525fcdf90b791dcacef51065a7a4e7)
C         3.67107551496253   -1.29358917672883   -2.51573600591814
C         2.85019999694298   -0.07977941842018   -2.92599651172350
N         3.88097051000457    0.97055436350012   -3.17133931797080
C         3.77755701563918    1.71072361055978   -2.10537329885600
C         4.29491436126285    3.11388349093043   -2.13064508366182
C         3.60010173010913    3.66127633252718   -3.38320991461794
N         4.08207384642223    4.12258932221245   -4.49430756766869
N         2.21571181865581    3.68735659716490   -3.35502816255014
C         1.20508934259532    3.15666392046630   -2.41965955974399
C        -0.07626301426113    3.98908058525333   -2.68395187957853
O         0.14276523294131    5.35178917578889   -2.31857827673897
C         0.98015138797774    1.63379115886045   -2.54824001138597
C         1.89532113228599    0.57870164868068   -1.86325674358061
C         1.14940751332058   -0.41813406387311   -0.92292279248911
N        -0.10029100323902   -0.79328780917948   -1.60263982700133
N         2.89752784314388    1.34947720989617   -1.10099454592112
H         4.17395656165744   -1.04617112616960   -1.57330688884364
H         4.38246126631664   -1.54406815725576   -3.30967093453689
H         2.94505342448191   -2.10157942710099   -2.40441958548355
H         2.20521194764841   -0.27596420629427   -3.79330058494937
H         5.36440663811096    3.20643043054070   -2.33628669565778
H         4.15289043728727    3.76935091402608   -1.26915471915030
H         5.10145864776489    4.03890669443592   -4.59455428162970
H         1.90956425473265    3.89269672957232   -4.30897506174118
H         1.50068207874215    3.39169134375385   -1.38818154023795
H        -0.90183185362541    3.57460484945791   -2.09635206566988
H        -0.28412701502941    3.89894821177663   -3.75753840842034
H         0.53716769792168    5.90456492441038   -3.01982924819106
H         0.97843892762755    1.39784676241962   -3.62080585802001
H        -0.05124240322243    1.50785854180824   -2.19216041311256
H         0.79726539392711    0.14773728284347   -0.06081554926122
H         1.82211584924427   -1.18476805237272   -0.51867471509417
H         0.09192251439376   -1.52221814503849   -2.28536309839467
H        -0.82497784608092   -1.06598233775064   -0.93671058453778
H         2.61153966549707    1.92784851312402   -0.31362495803023
