35
 energy: -49.718713544656 gnorm: 0.114768054549 xtb: 6.4.1 (79825abcba525fcdf90b791dcacef51065a7a4e7)
C         3.73709557669380   -1.27776900701561   -2.56520940325391
C         2.99039538183566   -0.04432026852630   -3.05155030950525
N         4.03857944946775    1.01685015450400   -3.01824100976843
C         3.76472611113786    1.72466743957330   -1.96049458935437
C         4.12649848688323    3.16867123746124   -1.81513720610394
C         3.63024833934016    3.58574255193511   -3.20478087773469
N         4.33435481074359    4.12513017134771   -4.14973585013331
N         2.29258077383338    3.44056153845632   -3.53277145546705
C         1.13997995885353    3.04634785921206   -2.69969648078309
C        -0.12981896916917    3.85864837797587   -3.06357882965147
O        -0.10827039689569    5.21644606116475   -2.62270803174233
C         0.84882456345709    1.53169129494445   -2.78522755147000
C         1.85748869901613    0.54379839526002   -2.13206909470659
C         1.00864413008429   -0.56214330163423   -1.43160322510388
N         0.15333159869317   -0.07158166534788   -0.33968210657508
N         2.70381985706685    1.29474594539874   -1.18372406028906
H         4.08304267198135   -0.95942133531880   -1.57462722385852
H         4.63415802341235   -1.30581205161114   -3.19261249404305
H         3.18607249057168   -2.22043530623759   -2.57528270533346
H         2.51707871629263   -0.10825673893773   -4.04079137509281
H         5.21600813602004    3.25080878569503   -1.78531602912915
H         3.72478265128645    3.80706958542615   -1.02580460936318
H         5.27793409960007    4.47769746540806   -3.94589279173214
H         2.17017221484311    3.59620174826853   -4.53611479934673
H         1.49104168449081    3.31160408596734   -1.69323997945916
H        -0.99117298124540    3.47257988996841   -2.50891859304843
H        -0.31655624685522    3.87005926669772   -4.14474408226382
H         0.63091818211255    5.61649473654825   -3.11912374771410
H         0.80287692966908    1.32496881805084   -3.86282898299408
H        -0.14340193308589    1.38555961943956   -2.33739165960203
H         1.71641054618774   -1.33046392436287   -1.12145247737991
H         0.46763587192088   -0.96849010548221   -2.29524265013755
H        -0.62706170392886   -0.70864588602243   -0.19992513730403
H         0.80776927911476   -0.16372352492424    0.43891682021168
H         2.07549994865314    1.90207889369756   -0.66159928526324
