35
 energy: -49.723547594471 gnorm: 0.119324962643 xtb: 6.4.1 (79825abcba525fcdf90b791dcacef51065a7a4e7)
C         3.49680827310554   -1.59198374013251   -2.60758785526735
C         3.03805982200508   -0.22632301421314   -3.09749100855458
N         4.17407238660721    0.73979820315104   -3.14184481411711
C         3.91032364752865    1.52324744798145   -2.13612501963253
C         4.45102627611148    2.88882548404156   -1.85329603733884
C         3.55450303203315    3.90551954460011   -2.57016522014930
N         3.84765140059081    5.12058355454233   -2.91269740938805
N         2.30226916083547    3.67367486916130   -3.11437861290985
C         1.09867949364440    2.95352315149940   -2.65540105461848
C        -0.14534718158631    3.62361493689704   -3.29415489911445
O        -0.05828673010943    5.03918796740928   -3.45853077917811
C         1.07426420871016    1.47744539857644   -3.11023060880053
C         1.91732924501816    0.48797974332097   -2.25574199795094
C         1.01886672095657   -0.52387023788897   -1.47906876769122
N         0.06815733945971    0.23220644807778   -0.64900750057772
N         2.80871159936614    1.23853386701089   -1.34928572287247
H         4.48251136342726   -1.74825312576393   -3.06173208729036
H         2.74912535970565   -2.30538623389169   -2.96976078209010
H         3.51802003561283   -1.68704985589438   -1.51999410606296
H         2.59085246103619   -0.40471483933598   -4.08485941315314
H         5.45078376195164    2.91272456556221   -2.29440933517739
H         4.56965443605881    3.05409392606817   -0.78064152913171
H         4.82873757778124    5.38667890213521   -2.76149971437107
H         1.96147813838060    4.51789775210215   -3.58027002791595
H         1.00909248171703    3.04432824672597   -1.56439762099156
H        -0.97931865149287    3.30492063477582   -2.66047270212533
H        -0.26735793752840    3.24028690898901   -4.31498413701841
H         0.06039618441088    5.58661599653256   -2.65909086428728
H         1.53818936626254    1.48324150834537   -4.10562504399089
H         0.08765751250001    0.99998099959809   -3.18136324494475
H         1.67741016299454   -1.18757180699153   -0.91936873056812
H         0.57204870650945   -1.05942541395007   -2.32595426131478
H         0.58733786414554    0.67716246907700    0.10389505879744
H        -0.53742688648826   -0.46691602428890   -0.21600564955330
H         2.32711499904932    1.97478828483096   -0.83718452082866
