35
 energy: -49.725435549496 gnorm: 0.092829237776 xtb: 6.4.1 (79825abcba525fcdf90b791dcacef51065a7a4e7)
C         3.58333235241648   -1.59888549350530   -2.81255022924156
C         3.09185821582000   -0.20028394074907   -3.15584504237388
N         4.14006462775987    0.85815987881833   -3.07312855255015
C         3.86335984024659    1.55884709295207   -2.01138455371080
C         4.39428800206585    2.93810830775427   -1.78136557371410
C         3.55720773649051    3.95196304959871   -2.57049000524828
N         4.10652257392513    5.06785881735976   -2.93473532800262
N         2.27099792174453    3.75151575701901   -3.04324260161352
C         1.08510119776078    2.94309725855474   -2.69970882556142
C        -0.16788094524414    3.61739134542084   -3.31614622449708
O        -0.22658148653515    5.00538294946855   -2.98678394250747
C         1.22971363073908    1.47055579056534   -3.14353358563619
C         1.98025175934397    0.44370172137342   -2.24786904594197
C         0.92793826784779   -0.47954660033769   -1.55899645203436
N         0.03756506900913    0.39438959988297   -0.77927016945928
N         2.82126279353043    1.09872545457848   -1.22649677199922
H         3.94855744545375   -2.19199322061565   -3.65937461409321
H         2.71622010490912   -2.14273081620269   -2.42333216493093
H         4.37313957357581   -1.51370613129958   -2.06335285858148
H         2.87838126924405   -0.26128049889319   -4.23168027371847
H         5.38915995942121    2.89593180212555   -2.23205180047671
H         4.45987983020510    3.20828877710198   -0.72558424013731
H         5.12434473461552    5.17207709448530   -2.83791507572448
H         2.04474628668602    4.41983475433529   -3.78355707004718
H         1.02066823160303    2.98257764160778   -1.60387599925698
H        -1.08318820473356    3.11489071303775   -2.98700593694676
H        -0.15389846417426    3.57778396554142   -4.41257455128299
H        -0.17667362146662    5.25503448618047   -2.04441958912802
H         1.75789266979691    1.50853963775466   -4.10564291125290
H         0.25980249789294    1.01723646336392   -3.38888814996015
H         1.51152818486337   -1.09673859140681   -0.87639830586089
H         0.37274566179125   -1.13300875110874   -2.24341525790654
H         0.08535875225905    0.22939652773130    0.22317164455439
H        -0.93153777190429    0.33100749997861   -1.09520921534728
H         2.39664443044866    1.73501984399685   -0.55487024810135
