35
 energy: -49.728641156346 gnorm: 0.104256780986 xtb: 6.4.1 (79825abcba525fcdf90b791dcacef51065a7a4e7)
C         3.66373783767227   -1.34780072428928   -2.94105884642357
C         2.93186618856962   -0.03192205061418   -3.16085797253089
N         3.94628183508931    1.04285309712057   -2.95664904654083
C         3.52477499654906    1.71386658061950   -1.92373990548010
C         4.03146614290340    3.09039668424015   -1.63119271211305
C         3.52711513162699    3.93957720440830   -2.80415677257631
N         4.13751439402145    5.04141476176033   -3.10913469652336
N         2.45203197651272    3.43630473683750   -3.51754508607324
C         1.25547382581470    2.99944019196855   -2.77235721387625
C         0.12004937271671    3.94579986422823   -3.24123516417604
O         0.42959091715891    5.24702116350778   -2.74178233469979
C         0.88009073733618    1.50569147624376   -2.89099053280265
C         1.73961738260334    0.39239856187085   -2.22635187964699
C         0.96984102110810   -0.84090981726934   -1.66005569255563
N         0.14510128371297   -0.43393258692754   -0.51171955536193
N         2.51426243225610    1.11167535537134   -1.19575840908100
H         3.95103024394365   -1.39295942923289   -1.88384484291668
H         4.51555222725120   -1.30678865112616   -3.62798849393103
H         3.12039075360015   -2.27426705653386   -3.13798966492087
H         2.61389386183254   -0.08950026536489   -4.21075928953143
H         5.12345520861826    3.04390832776594   -1.62307818248288
H         3.64195411521310    3.56366845471222   -0.72771708853643
H         4.99059675845708    5.26469709904703   -2.58131556415035
H         2.33104651152138    3.91897452390242   -4.41102031967036
H         1.40702463835203    3.19138748849603   -1.70149378190480
H        -0.90929680958408    3.75670184427885   -2.91980714782768
H         0.04878996254681    3.90681408867482   -4.33545705275810
H         1.08120293608108    5.69427594544800   -3.31469785929478
H         0.83999522312845    1.23519141806261   -3.95461278222648
H        -0.13493917807811    1.44767295578440   -2.47533081511481
H         1.57570442102476   -1.71216045187072   -1.41247695063009
H         0.25917190400032   -1.18066256705404   -2.42372983244018
H         0.73075746324981   -0.16199264298827    0.27406161424828
H        -0.46323388033620   -1.23099638449612   -0.31777956794694
H         1.98649152175527    1.70577348744056   -0.55955187012006
