35
 energy: -49.727347548124 gnorm: 0.110130741691 xtb: 6.4.1 (79825abcba525fcdf90b791dcacef51065a7a4e7)
C         3.60690931016716   -1.42978474779810   -2.45122617071415
C         3.08832012393046   -0.17824991030630   -3.14419822809122
N         4.04491659388466    0.96260568697949   -3.04800198697456
C         3.74940067832278    1.68624985520933   -2.00692663516195
C         4.20683973721723    3.08410877368317   -1.73509048284336
C         3.66781274345277    3.95270273300982   -2.87803257676861
N         4.37493915934346    4.72796264107887   -3.63868303778022
N         2.33993296860901    3.83106872352682   -3.25213193090381
C         1.27460435010945    3.03057664267271   -2.61794398284258
C        -0.12152352538095    3.62442080824921   -2.93858071658355
O        -0.25110555933389    4.95060170966393   -2.42584425517696
C         1.19303914571612    1.57226861024596   -3.12089165881637
C         1.92913023939097    0.47259004901629   -2.30307218591232
C         0.87789738295097   -0.58431234371379   -1.84246020132463
N         0.09922373089601   -0.06854760363216   -0.70572977522573
N         2.73893005252496    1.11893216567494   -1.25139585560048
H         4.55978006194592   -1.79161700718626   -2.85544446723178
H         2.92122492326831   -2.25840515334814   -2.65705918778195
H         3.71899227134730   -1.34011647624221   -1.36875460923297
H         2.87439218721302   -0.46049294573843   -4.18404828221629
H         5.28916272332644    3.22944398138822   -1.68902781454985
H         3.82836357485292    3.41920183273178   -0.76739092323421
H         5.36919954801408    4.66382921487358   -3.38662996420248
H         2.07665740713341    4.22472472932925   -4.15856809626661
H         1.29115167010206    3.14418566727599   -1.52552507786327
H        -1.00903002682794    3.11069547579552   -2.55511482774052
H        -0.14266429408835    3.70031665782174   -4.03298111181017
H         0.46250872022068    5.48704317121991   -2.82062581569940
H         1.46489056763953    1.53773887979290   -4.18436461062769
H         0.12331843995231    1.32319055315185   -3.11180178693831
H         1.27423952024369   -1.50085500009812   -1.40621963437365
H         0.24793144174152   -0.92864774515322   -2.67207261509467
H        -0.52177782229123   -0.79223701047028   -0.35213784434753
H        -0.49128627263332    0.69838114664545   -1.03148016251900
H         2.09614594113964    1.58710582470574   -0.61586811848656
