35
 energy: -49.724102459340 gnorm: 0.100055268781 xtb: 6.4.1 (79825abcba525fcdf90b791dcacef51065a7a4e7)
C         3.44272073315193   -1.40596114876461   -2.43929546090032
C         2.92900252922257   -0.16096642945106   -3.14750886093196
N         4.06089983353685    0.81049639097531   -3.17833889805153
C         3.89599083401050    1.62254067048665   -2.17423853947035
C         4.47350155454686    2.99307956294982   -2.01530635370072
C         3.81169345405317    3.83197836877536   -3.11511587922937
N         4.41897216569271    4.43934901510391   -4.08566121546552
N         2.43287632663864    3.77404245270082   -3.23137666421236
C         1.29378269645489    3.04187813993697   -2.64459895883060
C         0.04941451677010    3.87219602559181   -3.05295160467417
O        -1.12040143944529    3.33037473946837   -2.43943201638032
C         1.14888834771008    1.59434656985735   -3.16414638485385
C         1.86391857662434    0.56345458968417   -2.24439358484887
C         0.95797655392237   -0.14779106055652   -1.19192256392405
N         0.22479495385048    0.90932004420786   -0.47815590932421
N         2.82999741707136    1.25882357641075   -1.37106053169647
H         3.36357588859236   -1.20376132175862   -1.36452617838884
H         4.47923647971974   -1.56464440831160   -2.75488509361922
H         2.90085263763001   -2.30673339360149   -2.73482211015007
H         2.53548207702325   -0.44116451183856   -4.13409140279415
H         5.56184558321183    2.96326483729884   -2.11166757113131
H         4.28328012559473    3.44218141955551   -1.03852729891558
H         5.44659705107081    4.43450635767396   -4.09835760811787
H         2.18120656640513    4.21838902399091   -4.11744892642520
H         1.32240310399829    3.21564927019713   -1.56037372980183
H        -0.14063847401444    3.83075605876764   -4.13035133712711
H         0.20515783438732    4.92145946213596   -2.77239930576322
H        -1.01182258972405    3.62539523822383   -1.51528873685912
H         1.74281431276898    1.65409517516739   -4.08596647461073
H         0.09074495885200    1.36027722509917   -3.34294510356413
H         1.53346146278201   -0.69437434956662   -0.44525852267194
H         0.25390302203222   -0.88861922542206   -1.59083959444492
H        -0.65876137324967    1.14623555666944   -0.92267339637475
H        -0.11365172622756    0.52928862505586    0.40729598233265
H         2.55727116183293    2.00833791136719   -0.73852425087333
