35
 energy: -49.718510727501 gnorm: 0.111818779607 xtb: 6.4.1 (79825abcba525fcdf90b791dcacef51065a7a4e7)
C         3.70907312594164   -1.38385318365366   -2.81157216402837
C         3.12161002103849   -0.01353270144516   -3.11586365715086
N         4.07604953570568    1.11824168622347   -2.93143495653738
C         3.65126830459463    1.72569783303499   -1.86120770626090
C         4.02955374928263    3.14039674654876   -1.55677041289404
C         3.69015784371516    3.81550135436396   -2.89107411741068
N         4.46610719845732    4.44881774048092   -3.71354463229122
N         2.38279457410540    3.62196005530054   -3.30502202474813
C         1.24316771598109    2.90472605348151   -2.70109078033574
C        -0.05361991122356    3.65146169051070   -3.10773503819253
O        -0.15070013407244    5.02702398638082   -2.73780295526941
C         1.03091931598948    1.41613751301687   -3.05510531241988
C         1.88654856673331    0.40699035344881   -2.23689245285296
C         0.98989849091023   -0.64974556943212   -1.52021652134768
N         0.11206296059552    0.15761050912104   -0.65877416891054
N         2.59086553112442    1.15735193550848   -1.17837836656819
H         4.67133426861610   -1.51759604123122   -3.31994606379458
H         2.98544182545256   -2.14410907442416   -3.12383935828753
H         3.92476298384767   -1.41926071732589   -1.74172551269736
H         2.75118748553759   -0.04633085922426   -4.14951052510310
H         5.09013830612406    3.35258974407765   -1.39928494430932
H         3.43677500096609    3.62649044878252   -0.77940288662496
H         5.39106840644435    4.56771735937429   -3.28167982612366
H         2.14018100535329    4.26662541310420   -4.06096568555644
H         1.32933293836142    3.00765373930771   -1.61088835736520
H        -0.83542935194169    3.17263894182635   -2.50929509398874
H        -0.13331622797118    3.52292884648890   -4.19449496195082
H         0.18942367543508    5.65756126817672   -3.40083069787429
H         1.11288222120157    1.35343356675049   -4.14845818194346
H        -0.00848693719056    1.13663029939916   -2.83616415873374
H         1.42578471524304   -1.49672096818205   -0.99099140525351
H         0.52104989966647   -1.04388775901333   -2.43044377516005
H         0.42004496210534    0.12061584301281    0.30982018399388
H        -0.84604760808696   -0.19548182364522   -0.67734912050399
H         1.88266105460291    1.71551575841288   -0.70598757288901
