35
 energy: -49.717083009573 gnorm: 0.112985594289 xtb: 6.4.1 (79825abcba525fcdf90b791dcacef51065a7a4e7)
C         3.49494378291372   -1.51782770432682   -2.64081341989427
C         3.01832020319077   -0.15208087438467   -3.11309511158906
N         3.99203751518008    0.97823941631394   -3.10157873996829
C         3.74391068660111    1.64102548155006   -2.00888660242641
C         4.25893378771916    3.03366906978200   -1.82874795381945
C         3.61035642949696    3.95498131537754   -2.86886973381894
N         3.99660965970383    5.12113745347820   -3.28182625843098
N         2.47127816549663    3.47076848974572   -3.49019773887086
C         1.30466211366174    2.92997410870413   -2.76600480113410
C         0.06342820572961    3.68730163141234   -3.30491596600212
O        -0.22434112966925    4.94691267929830   -2.69745010653232
C         1.00916794072465    1.43299034434241   -3.00682494320239
C         1.85490916019704    0.39938373285260   -2.20912146954355
C         1.01701175868025   -0.67304721436524   -1.44615597192492
N         0.05669372971213    0.13753659102961   -0.68114279672458
N         2.72959669854607    1.09391450042326   -1.24366528177839
H         4.37056718048541   -1.77658222142043   -3.24794392214378
H         2.75333007815579   -2.26658001472291   -2.93833849305060
H         3.83375735347313   -1.55203112768530   -1.60332455127041
H         2.76033471558746   -0.22357077483090   -4.17848100318335
H         5.31480749057617    2.84690359846613   -2.04068312487726
H         4.11212257445120    3.57363808749523   -0.89127587010706
H         4.77326355300351    5.64726929625473   -2.86207447038191
H         2.18861149061897    4.09004818872787   -4.25341317949941
H         1.43079288680260    3.11422077268957   -1.69050301940421
H        -0.91376911755099    3.25057876136542   -3.07472882695340
H         0.15979551557880    3.81408688193436   -4.39053015653539
H         0.58192654562242    5.48060557838463   -2.56339196926657
H         1.18652285683716    1.20103913950258   -4.06551001303516
H        -0.05050369401062    1.36731723402625   -2.72538589021106
H         1.48046096970292   -1.36086295585751   -0.73935495356344
H         0.56543677777374   -1.22531232709581   -2.27968101229633
H         0.54716078756687    0.60469227871826    0.07754302012490
H        -0.56857315940322   -0.50382186280309   -0.19053527733791
H         2.32235316523036    1.66663434310719   -0.50718842581632
