35
 energy: -49.723134369664 gnorm: 0.121958199957 xtb: 6.4.1 (79825abcba525fcdf90b791dcacef51065a7a4e7)
C         3.58802214930602   -1.38908779859268   -2.84030466011781
C         2.98543479959441   -0.04653901261796   -3.22751996192682
N         4.00119294397133    1.03199640044374   -3.05179644095341
C         3.75975069759954    1.62704857207923   -1.91934469343056
C         4.16093324169476    3.05022802533937   -1.69402775752472
C         3.58024147552555    3.88023649469926   -2.84520331966387
N         4.16150042034259    4.89780913091099   -3.39867306587991
N         2.33909630608756    3.54010351510660   -3.35694354611420
C         1.21694536225851    2.94606786805664   -2.60474284995147
C         0.07685995873694    3.78755391779499   -3.23461453876423
O         0.31947583974673    5.19219511899020   -3.15358004395464
C         0.92488787063574    1.44782677977056   -2.84190862231510
C         1.89877939532643    0.42373096738256   -2.19174344446059
C         0.94964707629828   -0.69488533384235   -1.66057306494242
N         0.09473197759782   -0.13944646335163   -0.59986113012612
N         2.72355648999105    1.09892613029434   -1.17026844654178
H         4.51419978909042   -1.64351909224879   -3.36920670786097
H         2.80929032690073   -2.13532616546806   -3.02963804616623
H         3.95880381488156   -1.44502736128615   -1.81476120096599
H         2.56374281194300   -0.07551309270222   -4.24144835438048
H         5.24308770008323    3.18750747736026   -1.62501179085844
H         3.76072766179515    3.32428728957492   -0.71591681908837
H         5.09160645427719    5.15857384407606   -3.04781399695479
H         2.17486158498951    4.19092210104363   -4.12854429869162
H         1.25787018604201    3.10240908837614   -1.51826116054693
H        -0.85270475008968    3.44484250982091   -2.76868971741505
H        -0.12087007304254    3.68046077544823   -4.30855737806421
H         0.27230504920686    5.57462714873960   -2.25670328611623
H         0.71372446572962    1.22770259351382   -3.89690888910266
H        -0.03029301680125    1.29457600665879   -2.32174657172522
H         1.54431120720639   -1.52797177631205   -1.28669486517909
H         0.32712039666644   -1.10150272316310   -2.46729701888133
H         0.56009582473662   -0.02249523636553    0.29688601202266
H        -0.81011938331372   -0.60928853241318   -0.54080583281918
H         2.13986343191661    1.55703986611331   -0.47335547323619
