35
 energy: -49.719789333165 gnorm: 0.119464790189 xtb: 6.4.1 (79825abcba525fcdf90b791dcacef51065a7a4e7)
C         3.64675460370073   -1.29861679394649   -2.77671338127644
C         3.04124694630283    0.02688096949053   -3.21477795209515
N         3.88248085735068    1.20710035300410   -2.86081510791873
C         3.52341905689743    1.72901356110104   -1.72348945844441
C         4.00179853693816    3.12273956253511   -1.46690454966223
C         3.62129631877987    3.84408991547594   -2.76543983756477
N         4.45216895434465    4.60103440940251   -3.41067660415881
N         2.47809355852950    3.47789005397376   -3.45608802596286
C         1.22453537336514    2.97180964612215   -2.86415775972115
C         0.03193159241155    3.81974436973589   -3.37731926026058
O         0.11429254245977    5.09168083755515   -2.73401509658869
C         0.95377486491617    1.47114965263969   -3.11109867953718
C         1.80572965163341    0.43093144112616   -2.32874918110236
C         0.90685879545062   -0.66354301103036   -1.67418569456571
N         0.34499204652277   -0.21136856331174   -0.39186515142932
N         2.41730830772672    1.11004883767942   -1.16929757832839
H         4.69655076755165   -1.37539278218588   -3.08381456157165
H         3.11047430212109   -2.20844123429601   -3.06613520808073
H         3.68885989057292   -1.29418630878805   -1.68558773418644
H         2.80142991149280    0.05099414131673   -4.28651520534313
H         5.08667164474004    3.19098641599244   -1.35262491793471
H         3.46843807261678    3.48349392695561   -0.58522609945480
H         5.36753096941699    4.77588739293915   -2.97739104912098
H         2.31533269387605    3.70154522715476   -4.44066551907196
H         1.32720419458739    3.19326047251006   -1.79318693059235
H        -0.91907451231807    3.30223288861189   -3.21484822135502
H         0.19975263156666    3.91358995657876   -4.45757313342267
H         1.06952012385921    5.29268359217841   -2.73634349403610
H         1.05824584582735    1.35464167076580   -4.19810461275319
H        -0.12541548755029    1.34029007935697   -2.95409930248398
H         1.50523893720792   -1.54915647438481   -1.46188084869335
H         0.11772664452929   -0.90322930008127   -2.39771981489887
H        -0.14446619569333   -1.04264820553146   -0.06968302287182
H        -0.34406575049220    0.54234398562262   -0.38129048351109
H         1.91906456328363    1.40506498146551   -0.33205681147666
