35
 energy: -49.719776916047 gnorm: 0.124284149138 xtb: 6.4.1 (79825abcba525fcdf90b791dcacef51065a7a4e7)
C         3.64888149052786   -1.54613716426008   -2.70605870454288
C         3.04904470207665   -0.20842979541491   -3.11375868584653
N         4.12632506575251    0.81626315632815   -2.98984989874901
C         3.71875360682438    1.58535560621940   -2.02175344330615
C         4.17795817217865    2.95593797295604   -1.63731865303356
C         3.60442572315981    3.88611585734383   -2.71302857336762
N         4.16857302777098    4.96263115821901   -3.16302573366717
N         2.30661498114245    3.72338270514018   -3.16823736668144
C         1.13343148461701    2.94831891857997   -2.72010392474927
C        -0.07642222167766    3.76111538978130   -3.24948823499693
O         0.00098674672361    5.10959892407717   -2.78683721078624
C         1.04658461750385    1.46900114489450   -3.15639291813654
C         1.85621007727202    0.43867235070664   -2.31801299187685
C         0.87193724438088   -0.57821208871644   -1.66116474674339
N         0.08410631960356    0.27142667032715   -0.75455655717767
N         2.68825432212938    1.05557661935778   -1.26602037322326
H         4.45955296099065   -1.64633588720588   -3.43752960078591
H         2.88793469517882   -2.29366234347590   -2.95366356098001
H         4.08632964714769   -1.64111793281381   -1.71008409210282
H         2.77076618867960   -0.32615403716608   -4.16989149035038
H         5.25872602057397    3.11674294694332   -1.66470050715968
H         3.69618173245728    3.15880063803744   -0.67882388858548
H         5.16360626179477    5.05479440614637   -2.92299997389883
H         2.18347074471890    4.14831316246795   -4.09028682389395
H         1.02211048144392    3.06718214572597   -1.63380789875856
H        -1.02141757630924    3.44083246271176   -2.79889948288477
H        -0.18613369192080    3.54675519497198   -4.31997057035885
H         0.91388078176489    5.44685790212233   -2.86265358886877
H         1.52424587354919    1.43837169287340   -4.14481174813252
H         0.01652284578246    1.09001920330384   -3.11431785227885
H         1.43730101105456   -1.37830374712836   -1.18402690767181
H         0.11530065460896   -1.04831426046951   -2.30162218455771
H         0.59934591608705    0.54959750200195    0.07703570363515
H        -0.55386226390155   -0.43783699020119   -0.38995233674785
H         2.16168401246145    1.78803135153905   -0.79433480143194
