35
 energy: -49.722784328103 gnorm: 0.118370931415 xtb: 6.4.1 (79825abcba525fcdf90b791dcacef51065a7a4e7)
C         3.57243662104480   -1.51440719866577   -2.73837714391924
C         3.05048064711453   -0.12777608991874   -3.08522084966548
N         4.14105371839920    0.86724591214841   -2.86966670541041
C         3.68563751792093    1.65243405418226   -1.93644428925718
C         4.21428731755468    3.02553160287869   -1.66758106650138
C         3.57454845902957    3.93931450053146   -2.71974892871647
N         4.02234882127693    5.05992118986681   -3.19235902967159
N         2.45096909685824    3.52109398680552   -3.41305326474956
C         1.25035291930230    3.02079694118576   -2.71582254321259
C         0.02762828918903    3.80213032000600   -3.26271785647535
O         0.13250729991830    5.22150924187814   -3.14953733057122
C         0.98560812419708    1.52690564373089   -3.00646070025121
C         1.83631544303135    0.45245140502690   -2.27039221027107
C         1.00534862946501   -0.65887332945163   -1.55712645347349
N        -0.09112043581080   -0.13652441937864   -0.72681978004539
N         2.62055635239557    1.13424463291019   -1.22173538526541
H         4.25278174028155   -1.89081453343629   -3.51150437482691
H         2.83011792043563   -2.31491284032045   -2.82379224394927
H         4.12769997928075   -1.67810771427100   -1.81250868615498
H         2.82568106091515   -0.08585113052803   -4.15966110321845
H         5.29820786826553    3.15021050814926   -1.60247702681123
H         3.85788031610111    3.32566598585149   -0.68022732724852
H         4.91948819453160    5.40651173915551   -2.83012498910789
H         2.31572893103863    4.22466627858840   -4.14284895048525
H         1.34874797997736    3.17798212988968   -1.63315402390283
H        -0.92962173446587    3.60690823585201   -2.76856370288291
H        -0.16717931852201    3.47696353746412   -4.29239542446008
H         1.07528356371621    5.40337335343075   -2.97356681235098
H         1.09167011258438    1.33221913193691   -4.08206203351911
H        -0.07859969911429    1.32734894966648   -2.82189714500447
H         1.67117408299662   -1.34494160880620   -1.03422097766651
H         0.46555674800991   -1.29849493378061   -2.26648506127227
H         0.04758606795863    0.10190967575768    0.25211138248761
H        -0.85339187660577   -0.81605573362007   -0.74003066615172
H         2.20031040451456    1.64315588326610   -0.44671528290756
