35
 energy: -49.721289261914 gnorm: 0.111436384339 xtb: 6.4.1 (79825abcba525fcdf90b791dcacef51065a7a4e7)
C         3.61372089726135   -1.41755005693855   -2.86872368470001
C         3.07145448897665   -0.00702286155398   -3.04717427275552
N         4.11215575535932    1.04992088094042   -2.88688453818189
C         3.72637997727414    1.74052814879322   -1.85292754078528
C         4.24604178312064    3.13015917891357   -1.66310617429711
C         3.58132041735610    3.86761652227227   -2.83170548530373
N         4.20635166978688    4.71561103779885   -3.58661345082431
N         2.28878311106392    3.57179836426043   -3.23151638154993
C         1.11861030166759    2.93177088792690   -2.59987772586406
C        -0.08710414088932    3.76890374261997   -3.09997081943109
O         0.06792863070171    5.12081471701562   -2.66782788269608
C         1.01087787165693    1.42725896528856   -2.93320808949345
C         1.90538438634185    0.46358292604507   -2.10186081772116
C         1.03783619815436   -0.75059809130517   -1.64642569941124
N        -0.06202041208008   -0.14041894331655   -0.88320959288658
N         2.65222930153241    1.27195501826876   -1.11783126543075
H         4.56163608330371   -1.54048337455512   -3.40595908876152
H         2.89502172936843   -2.13425361547822   -3.27975846869355
H         3.81764926936086   -1.72193936638798   -1.84007990267836
H         2.85150509442025    0.08527075808525   -4.11947020777852
H         5.32664713135863    3.11773267928824   -1.82682789443782
H         3.98090649685664    3.51149769883960   -0.67504837911650
H         5.21066236689300    4.81397860114736   -3.39198198187085
H         2.04919227815378    3.84453714462583   -4.18761019606173
H         1.09856240007298    3.25962910381558   -1.55170457617657
H        -1.01365096759641    3.36777893451200   -2.67660636528972
H        -0.06157571967226    3.70141557092186   -4.19482833467852
H         0.98636235180797    5.42726901803210   -2.79205558461294
H         1.36081839425686    1.32560560939394   -3.96919961479059
H        -0.04318120529293    1.14097507211935   -2.81733803544217
H         1.49524723190757   -1.55238877038606   -1.06733140543916
H         0.64092260784271   -1.06229392993756   -2.62058483515436
H        -0.17357175764807   -0.61721954579884    0.00820165980805
H        -0.92087777219486    0.07164118078451   -1.39349345772237
H         2.24144650753131    1.92308967833283   -0.45184731429654
