35
 energy: -49.711940059512 gnorm: 0.116669143039 xtb: 6.4.1 (79825abcba525fcdf90b791dcacef51065a7a4e7)
C         3.62126032295359   -1.36526551008240   -2.54567757471792
C         2.90445008925248   -0.17954556841512   -3.17475288119295
N         3.89962559767430    0.92791054192429   -3.26987732480188
C         3.71315030265447    1.60715529050772   -2.17503400184986
C         4.38429887733760    2.91366575116970   -1.89264268151593
C         3.56933821827786    3.94871776138479   -2.67739014544637
N         3.91370355355309    5.17345487411650   -2.92452632012429
N         2.44967020635245    3.52014600977644   -3.37070076005449
C         1.28775056499039    2.91533040527349   -2.69095979191924
C         0.11223321098414    3.75905608973016   -3.24855977635252
O         0.11427531340985    5.12070081097300   -2.81918181406225
C         0.98730259366500    1.43917004888212   -3.03294389681160
C         1.83818312712309    0.43984203110456   -2.19790051291436
C         0.95710895283362   -0.63442317700537   -1.48799977723819
N        -0.30795339109580   -0.12018485334584   -0.94057110845606
N         2.80805208005899    1.06756279885952   -1.27872820586955
H         4.46525454083642   -1.72909689480372   -3.14365596919331
H         2.85701755670454   -2.14539804566767   -2.46525182484885
H         4.03305835937366   -1.10280920793734   -1.56900632507480
H         2.50965239192903   -0.31456038962585   -4.19093208670183
H         5.39994641359443    2.89637295778722   -2.29616239121614
H         4.54535085898757    3.27075584649882   -0.87356325478507
H         4.73589622818663    5.49448175669427   -2.39808686316186
H         2.26573963706894    4.13289535955347   -4.16858130543713
H         1.22926487545827    2.95506692767827   -1.59480273183508
H        -0.82743839206951    3.25074155878088   -3.00926663695028
H         0.18135142209655    3.89812994371555   -4.33474597666561
H         1.03872629411079    5.27152722591254   -2.54439273483249
H         1.16696662910405    1.29132695162905   -4.10622552108715
H        -0.09484461197357    1.32537477056106   -2.88316770626107
H         1.57767963245132   -0.97386404667164   -0.65907560925336
H         0.83385671766333   -1.39626792610603   -2.26779600579134
H        -0.15757009918751    0.34294255906838   -0.04765767767587
H        -1.21604026155982   -0.58664895560966   -0.91256137376062
H         2.64354096911431    1.66475278794867   -0.47092027251472
