35
 energy: -49.724501804772 gnorm: 0.127394064570 xtb: 6.4.1 (79825abcba525fcdf90b791dcacef51065a7a4e7)
C         3.53584830583284   -1.46087747302256   -2.88270442775218
C         2.98556160322577   -0.05530612457524   -3.07515737606079
N         4.06304675574128    0.96169054541440   -2.90015590855948
C         3.64248865130588    1.63402605652064   -1.86771983476725
C         4.10530900985174    3.04290971470912   -1.67278634345901
C         3.67029850675711    3.87885975255702   -2.88244561226436
N         4.34242889272531    4.78064715166258   -3.52639048772605
N         2.43423271751619    3.53089563673801   -3.40116725945715
C         1.22178769498272    3.03663540301079   -2.72029221333422
C         0.04225765707497    3.83467726750378   -3.33386363504636
O        -0.06194713482779    5.09626005231017   -2.67356355565878
C         0.95368047324816    1.53703639388111   -2.97640318485620
C         1.83754103832958    0.53693149854623   -2.17732100166264
C         0.99774170498265   -0.65250981196236   -1.61672937304445
N         0.05783219206666   -0.27216221528521   -0.55070509072216
N         2.58040381384404    1.20642633469683   -1.09127843036215
H         4.36049496576813   -1.51190140812575   -3.60355956028280
H         2.78495095689852   -2.21274955436642   -3.14724859681058
H         4.03325202978753   -1.69046977070074   -1.93812803351416
H         2.67810204020161    0.09468916122710   -4.11903689144496
H         5.18291064228872    3.22514728832646   -1.68799550526860
H         3.68080019740903    3.39697274969133   -0.73129517445579
H         5.28344592362761    5.01667476314966   -3.18731016328753
H         2.19520006204790    4.03229401789245   -4.25986897623780
H         1.22965759381579    3.18150964196991   -1.63148121832763
H        -0.92516754565564    3.39145395233011   -3.07643565919134
H         0.15485536187485    3.92663231541461   -4.42142298870580
H         0.77729014156730    5.58681894923348   -2.76244563026638
H         0.91822786903841    1.33667445682942   -4.05560121623753
H        -0.07356946353685    1.30765533329926   -2.66244975206392
H         1.66131062917481   -1.37441229586860   -1.14135958092576
H         0.52657336158702   -1.17597438581300   -2.45795819236057
H         0.59152068911573   -0.03864648216751    0.28298761416591
H        -0.68953609840135   -0.93072521122059   -0.32547077246075
H         2.16750493088193    1.87996612418628   -0.44931882691053
