35
 energy: -49.725869223455 gnorm: 0.109456576688 xtb: 6.4.1 (79825abcba525fcdf90b791dcacef51065a7a4e7)
C         3.50321533771745   -1.62324428848491   -2.59871325593325
C         3.10133507415983   -0.22312819999232   -3.03877194026497
N         4.21496600523625    0.76284778880227   -2.92232663907836
C         3.91211480508811    1.56997761366024   -1.94680061733240
C         4.42154272752328    2.97013826509299   -1.81569652910054
C         3.59242342571682    3.92098289023448   -2.68734890613862
N         4.20330259819750    4.96416352631715   -3.15451655860015
N         2.33015175838793    3.65739247099324   -3.19252230215332
C         1.14849810916921    2.90808437139181   -2.72333257205218
C        -0.05045791372018    3.69417607585298   -3.31426076867967
O        -0.27661203288281    4.96988749125620   -2.71437689868597
C         1.18215036912163    1.42431289004238   -3.15177308303704
C         1.95547129116729    0.46123850297802   -2.20603834373912
C         0.89992986248607   -0.44484883352666   -1.49954375528457
N        -0.34652261486249    0.20753372135659   -1.06913093527572
N         2.74797577115652    1.27277658329561   -1.26110472368602
H         4.38574583377588   -1.87409215906933   -3.19912391154745
H         2.76089855797615   -2.37318846924754   -2.89144454407584
H         3.70793242414555   -1.63501991264391   -1.52619289826850
H         2.87004588575162   -0.30911575455117   -4.10920450535291
H         5.48911610390831    3.00519291703248   -2.04748391017768
H         4.13592635909982    3.22341000100578   -0.79283254504251
H         5.19558434134967    5.05441007764134   -2.90266329206232
H         2.12719942875995    4.28614096009049   -3.97315748252795
H         1.01829683104100    2.98831086879173   -1.63559582696366
H        -0.94033386916665    3.10788113827457   -3.06324955137709
H         0.01710459440190    3.66979380902557   -4.40913982380140
H         0.54282119852839    5.50031554866006   -2.72089730824960
H         1.67519904625862    1.33778252430646   -4.12926258018449
H         0.13336547135782    1.10428114518117   -3.21545041097374
H         1.43294923370454   -0.98513393458514   -0.71760659490986
H         0.63619221214891   -1.16728888200712   -2.28197812677493
H        -0.11509588748235    1.13428083637381   -0.71987745626096
H        -0.96727558013480   -0.36560921759860   -0.49539928148112
H         2.41664398363603    1.96926102565846   -0.59673874685453
