35
 energy: -49.725459253362 gnorm: 0.121124716724 xtb: 6.4.1 (79825abcba525fcdf90b791dcacef51065a7a4e7)
C         3.70605244373847   -1.36730438639635   -2.66889815695034
C         3.07373243865114   -0.06609228078458   -3.14060030563994
N         4.00273527450626    1.06134858966214   -2.83775905005523
C         3.62934961541762    1.70733686205131   -1.77093631977412
C         3.90929139683754    3.15743833501786   -1.53430732715914
C         3.70852477528435    3.83487696980739   -2.89522314858684
N         4.43541657947048    4.68084004975491   -3.55523799296909
N         2.53034227344353    3.52011817379218   -3.55159404878464
C         1.33135864607875    2.94998282098659   -2.90716336664624
C         0.12207796623048    3.86493014084935   -3.23142166546581
O        -0.01054347408927    5.07228172441501   -2.48098202868893
C         0.98671626520496    1.45099584517996   -3.05045044157446
C         1.85331791719902    0.41835815918398   -2.27416913017971
C         0.85161880131295   -0.63715789535266   -1.71133585090794
N        -0.14318865233246   -0.08096525431030   -0.78100803484031
N         2.55546672268459    1.08523306763627   -1.15979851701173
H         4.71113335136910   -1.40035209979011   -3.10593122505157
H         3.00713036917288   -2.16932234406098   -2.92854640521990
H         3.85666591654989   -1.30373051883657   -1.58925858087660
H         2.90600288668257   -0.00311118899433   -4.22439668653616
H         4.97665326671098    3.26095545176279   -1.32290723379714
H         3.27671995891470    3.51305568197052   -0.71860904766385
H         5.32757815675185    4.70302445215690   -3.04557815874964
H         2.54231112571854    3.82798175359838   -4.52677728866506
H         1.49576583676609    3.05884626349384   -1.82657143704088
H        -0.80661698953348    3.29959888111112   -3.10275995792338
H         0.17030864358081    4.03679422481104   -4.31403695270881
H         0.78260301173133    5.64043316647253   -2.44952018266887
H         0.94147477933581    1.12878177446932   -4.09935534782920
H        -0.03356885436764    1.38051432813579   -2.64985649880526
H         1.42132942636746   -1.44766002676495   -1.25750828626752
H         0.26187889558966   -1.03567053156236   -2.54624616484584
H         0.26369178410601    0.03061305772559    0.14440815688493
H        -0.89499015626693   -0.75432154767402   -0.62486423780468
H         1.92735263010736    1.62132486733262   -0.56454079031338
