35
 energy: -49.723192442409 gnorm: 0.120747227685 xtb: 6.4.1 (79825abcba525fcdf90b791dcacef51065a7a4e7)
C         3.57136000415549   -1.51119979280025   -2.61034407371689
C         3.03212212895224   -0.19272207375827   -3.14543606167995
N         4.07063364665031    0.86988027607645   -3.01033591550805
C         3.74250714416963    1.57978641489895   -1.96956954289633
C         4.28550884771574    2.96165256537350   -1.78860010885514
C         3.58218958320042    3.90748388606787   -2.76945038075546
N         3.85080101699911    5.16361551157085   -2.94157248353832
N         2.46617321283794    3.48711051102945   -3.47358353765377
C         1.28439004858730    2.95443189227292   -2.76821200154134
C         0.08471771648198    3.80768926455499   -3.25541830625995
O         0.25620676949429    5.12904229142183   -2.74252100482183
C         0.91666054374088    1.46461683007040   -2.94568761242406
C         1.87933336235749    0.43904973045541   -2.28128953662511
C         0.95797590729652   -0.64026791887027   -1.63285266005318
N        -0.22580046849544   -0.05311979580772   -0.98598904587917
N         2.70282515937395    1.05574149273817   -1.22246498387449
H         4.53864064348311   -1.59369246925956   -3.12008989647761
H         3.00943909215409   -2.43282095070265   -2.79473874827258
H         3.70856249588867   -1.46972025841619   -1.52784576602275
H         2.64331992154139   -0.25406881213480   -4.17100118560483
H         5.34623858605986    3.10648090450695   -2.00892778683004
H         4.22787666453085    3.42172935659782   -0.80017619101649
H         4.64201155961642    5.49403389440389   -2.37499757475676
H         2.15774739933556    3.93928043632104   -4.33748252200580
H         1.47466620052996    3.28826986268470   -1.73917989598413
H        -0.83839419283267    3.46560537696057   -2.77638739909737
H        -0.05101540051760    3.76089387455721   -4.34321701892439
H         1.04630178781369    5.55720035822835   -3.12370047923727
H         0.98657201392370    1.34586505173694   -4.03521989643686
H        -0.07360513177358    1.28535103819034   -2.50561656840131
H         1.55136504492635   -1.25274402518524   -0.95446803410012
H         0.64692577186428   -1.23535415514987   -2.50049365102929
H         0.03011674800872    0.51401442203836   -0.18146329032300
H        -0.97932262469475   -0.72432330386749   -0.82887350902382
H         2.31175264409116    1.67599262392694   -0.51634581465342
