35
 energy: -49.717568413381 gnorm: 0.115309184689 xtb: 6.4.1 (79825abcba525fcdf90b791dcacef51065a7a4e7)
C         3.40319607220574   -1.40173965090636   -3.05999247837439
C         2.91882298760286    0.04077388243186   -3.05531864621911
N         4.01263413067894    1.04237723523018   -2.89330042590779
C         3.65630632081771    1.74778267355980   -1.85876570364853
C         4.24949703954351    3.11769587065163   -1.76593491197356
C         3.92811325548237    3.72407344059574   -3.13719014452456
N         4.71092465541491    4.45283948606889   -3.86914040214690
N         2.62628373936653    3.61988443828060   -3.59805283511909
C         1.48378933842736    3.14481509454431   -2.79373782739823
C         0.27583653022051    4.08002624833370   -3.05993687741183
O        -0.72009086826983    3.87176220679226   -2.05833782527466
C         1.03411379021777    1.67011396309946   -2.89027793958300
C         1.82451244204708    0.60571401142430   -2.07647551055560
C         0.87882414566284   -0.50743825131977   -1.52796641445282
N        -0.05795939840505    0.06446387199548   -0.54823863619466
N         2.64085534145315    1.27707007515144   -1.04573682287655
H         4.02371258410655   -1.58482464320160   -2.17471465710303
H         3.97325580924286   -1.57057044865512   -3.97959572784549
H         2.53119673575239   -2.04281534221451   -3.20486061667978
H         2.54088081377093    0.13590480197521   -4.08236501619750
H         5.33052816334025    3.04156193589207   -1.62365884015391
H         3.93087104359147    3.78136532541641   -0.95971265453376
H         5.60133060099587    4.57758988374470   -3.37133304857420
H         2.43903701398412    3.93898932544892   -4.55147631005157
H         1.81145349785819    3.33895818266459   -1.76344439776957
H        -0.11252736987461    3.90139635574535   -4.06785177115072
H         0.55777914980370    5.13921939361310   -3.11031113124575
H        -1.56483523828084    4.10748544081028   -2.48695043292848
H         1.12655450617412    1.42676829534900   -3.95719303028442
H        -0.01583515292202    1.53846648312657   -2.59582756583108
H         1.43612779508813   -1.26303427740136   -0.97485644049954
H         0.30679816872090   -1.01079593593382   -2.31733199545447
H         0.50632953170754    0.42124963538670    0.21901520664339
H        -0.88836468890362   -0.47822333452761   -0.30551918768344
H         2.16155619426430    2.00919286413581   -0.52561949085417
