35
 energy: -49.725605407134 gnorm: 0.110794669969 xtb: 6.4.1 (79825abcba525fcdf90b791dcacef51065a7a4e7)
C         3.72676285552579   -1.22434639405265   -2.65890283050074
C         2.89496227166393   -0.01939644463868   -3.07325515362657
N         3.89036399828924    1.09164158291606   -3.04772258449062
C         3.67754454850768    1.72388670684864   -1.92977696143951
C         4.08210424356168    3.16285233866696   -1.87625772025760
C         3.57691260404395    3.76808780853957   -3.19147390811194
N         4.16863986565320    4.61463094206463   -3.97433300484647
N         2.31891976940009    3.31924742995789   -3.55754246297344
C         1.21396825821369    3.02011394790424   -2.62614121744412
C        -0.03889993856795    3.87814549372063   -2.94036240671367
O         0.30435298855529    5.21194746325136   -3.31665442747902
C         0.81411217455157    1.52815240034240   -2.60522801699193
C         1.81027452925068    0.47253559652080   -2.04550899555577
C         1.05435035183277   -0.73544662130019   -1.41017117855500
N         0.08344533939242   -0.24258231120385   -0.42076216268844
N         2.69914889123554    1.19007995899284   -1.11031415665850
H         3.90473693093804   -1.30231063050701   -1.57977147450445
H         4.69372152093041   -1.22914294692819   -3.17281917739336
H         3.26626651861514   -2.12738625923475   -3.06487055267592
H         2.57957300419361   -0.15613881013954   -4.11658901354736
H         5.17228845306350    3.21799509441271   -1.93215774811085
H         3.67752910227086    3.67529846624503   -1.00121948130265
H         5.14715641805498    4.86873122200428   -3.78957380516015
H         1.96483660192615    3.57027453880462   -4.48356411038996
H         1.44675370281625    3.31122311159206   -1.59288119781872
H        -0.60794427391071    3.96288177372792   -2.00889265420996
H        -0.74873666257911    3.57022739567506   -3.71833257528165
H         1.27917743901280    5.19832164455567   -3.36563287807264
H         0.72463621057644    1.24069983215128   -3.66136971342966
H        -0.15074199380040    1.39599510976644   -2.09727551502193
H         1.86102379147120   -1.36522606454416   -1.03587293639989
H         0.42129221797998   -1.22089845907753   -2.16333425157104
H        -0.46944690625063   -0.98524816899745    0.00013464865446
H         0.45290423978546    0.23405358547663    0.40344256014488
H         2.21228310689215    1.82489807663759   -0.48085315656778
