35
 energy: -49.715985665221 gnorm: 0.119225383791 xtb: 6.4.1 (79825abcba525fcdf90b791dcacef51065a7a4e7)
C         3.65384130223704   -1.41852728126739   -2.39118735190830
C         3.05900060317500   -0.16770766547869   -3.02134548085717
N         4.08963892732338    0.91102101662428   -3.02467294625687
C         3.73601633710365    1.75525505634101   -2.09890387496588
C         4.24195564562390    3.15873286733670   -1.99199088646365
C         3.77285378620759    3.84206580003561   -3.28207683297343
N         4.60010294743143    4.42336511151037   -4.09287565785275
N         2.42078639583173    3.70445281203303   -3.54850932850842
C         1.35946408352785    3.03334765366092   -2.77319017971942
C         0.20596755983322    4.06112564497780   -2.90641925105900
O        -0.89804468436049    3.79495382929071   -2.04111266864167
C         1.13217274525656    1.54366296473079   -3.11296904865630
C         1.84977116077268    0.47131020605338   -2.24402500874739
C         0.82256992610304   -0.35817048598510   -1.41269117165370
N        -0.21360014781353    0.49997523137396   -0.81734297561154
N         2.72085966496635    1.22660612042295   -1.32191337879442
H         3.85811039090592   -1.19554541311151   -1.33722771922926
H         4.56598473581098   -1.70609065126319   -2.92452002792109
H         2.99217971553656   -2.27486609360179   -2.53691122606145
H         2.67809414564186   -0.36549310009982   -4.03253567793579
H         5.32432049806430    3.25338896491682   -2.11112820390966
H         3.86029436652787    3.76591594517829   -1.16880355907381
H         5.56930450068697    4.42195002748369   -3.75105127332209
H         2.19847456403961    3.92977007359103   -4.52098820831282
H         1.69763702225285    3.13169902041066   -1.73274510382205
H        -0.16318750781853    4.17492437901014   -3.93082247707878
H         0.63084184837458    4.96442100193642   -2.45094294120010
H        -0.62799560622941    3.85852107808519   -1.10521739678314
H         1.26024107802488    1.40399612898961   -4.19470925409071
H         0.06156948074022    1.43064141207701   -2.89511668613120
H         1.39577866005509   -1.02949552779557   -0.77378758743493
H         0.29773223026034   -0.95860483861145   -2.16615297819197
H         0.08147588149677    0.90520296446049    0.06759609455281
H        -1.02697585965320   -0.09053100539643   -0.63646340062001
H         2.31432456968718    1.91701074478044   -0.69396102217226
