35
 energy: -49.714175282199 gnorm: 0.119020796844 xtb: 6.4.1 (79825abcba525fcdf90b791dcacef51065a7a4e7)
C         3.59979531596662   -1.25334428622413   -2.71006859625824
C         2.82402155543604    0.01682205816233   -3.02682866914992
N         3.84418531072430    1.10512588437624   -3.05408100049766
C         3.70695999633703    1.79126920798574   -1.95626271784165
C         4.33176301108217    3.14970602500371   -1.91850604978028
C         3.78801723851728    3.65126463984056   -3.26167457776489
N         4.62844689896967    4.19316273080138   -4.08609513863127
N         2.50728685638708    3.41920198343414   -3.73484098659961
C         1.33675542739214    3.11698138156779   -2.88842156639697
C         0.19481818304880    4.07677869237485   -3.31197824795582
O        -0.90595261710827    3.95236952564625   -2.41127188227317
C         0.86770476743012    1.64526272642515   -2.87089521838270
C         1.73571619740220    0.63155556873542   -2.07157952166532
C         1.07661815091455   -0.48219545573103   -1.20011815196866
N         0.20051568118807    0.09778600842300   -0.17027937219364
N         2.61351978469434    1.42745280214971   -1.19091762524143
H         4.19285075869754   -1.13454031412301   -1.79549299381944
H         4.34349976747863   -1.38286757426274   -3.50333367422164
H         2.93688037306821   -2.11337548529344   -2.59501307391462
H         2.39541352459823   -0.07353953358861   -4.03422350085878
H         5.42307188105283    3.09401072183792   -1.94320676417950
H         3.93421533652518    3.64147263691966   -1.02850860624521
H         5.63004785523035    4.28862438096160   -3.87661922657478
H         2.44762265400400    3.42892354365206   -4.75574806118737
H         1.53792091643444    3.50752184340535   -1.88165919606636
H        -0.26101732653516    3.83553120149966   -4.27771176285125
H         0.62244629469908    5.08436233044896   -3.38832440673216
H        -0.94885662748966    4.80773435340264   -1.94289434463954
H         0.67124835561268    1.33717021423476   -3.90653708113448
H        -0.04035588202595    1.65663988096911   -2.25305924680840
H         1.89782069738676   -1.00386673211258   -0.70927315929392
H         0.58499528465908   -1.25632326730000   -1.80237538508286
H        -0.76004589413167   -0.23492537275476   -0.20223444796297
H         0.64152297266215    0.19355461290551    0.74587346518571
H         2.24900236503921    1.79120958977508   -0.31281654058421
