35
 energy: -49.719855414162 gnorm: 0.112669425617 xtb: 6.4.1 (79825abcba525fcdf90b791dcacef51065a7a4e7)
C         3.27383499882346   -1.57241026455348   -2.42549865373376
C         2.92424757669976   -0.22157714949853   -3.03255959786159
N         4.08895816028065    0.70116193610860   -3.16629008726648
C         3.96761929636937    1.61054900836182   -2.24264489465838
C         4.57172902304245    2.97700500903711   -2.17190341611056
C         3.76941210599520    3.93245790273831   -3.06337384036926
N         4.29707305956599    4.98933821054060   -3.59649929717391
N         2.46896846514840    3.68921050937527   -3.47286975274046
C         1.35565618686699    3.08827752713794   -2.71305245145102
C         0.06751468979372    3.77339809893517   -3.23834584992812
O        -0.95787228975086    3.84205128785588   -2.24722817195653
C         1.14537581878634    1.59224673325442   -3.03545843037763
C         1.93073334488926    0.59982678979661   -2.13087678480358
C         0.94998413210030   -0.24954406414431   -1.26427611200125
N        -0.08760730909298    0.59633869204119   -0.65403980919179
N         2.95147585644595    1.32475598927806   -1.34849622235472
H         3.60347242341004   -1.61399584867155   -1.38056445046337
H         4.14552039955564   -1.92029459235697   -2.98966453637976
H         2.39511882040318   -2.15832570598132   -2.70282273723390
H         2.49442584463155   -0.37002504462932   -4.03252506295319
H         5.61391416877776    3.05127505250329   -2.49284144464953
H         4.56342396924829    3.26246838320362   -1.11814078334519
H         5.30963029308266    5.05918850834988   -3.43511047419009
H         2.16123919170637    4.41003444253133   -4.12984856419656
H         1.47666822213779    3.31283829098930   -1.64464782367789
H        -0.38143718373122    3.46840401195003   -4.18916045881970
H         0.37563000441873    4.81137153608926   -3.41609691083817
H        -0.87628466991722    3.02568062342657   -1.71831451032366
H         1.49979272420889    1.38285437351327   -4.05360072270437
H         0.10324862124674    1.27658928673265   -2.89138841434240
H         1.58391219687599   -0.90003160113670   -0.66224244032004
H         0.42630496245437   -0.80238142805027   -2.05409362237545
H         0.22307695781416    1.41298042933696   -0.13349384990438
H        -0.87530769693557    0.09851885695025   -0.23607019921498
H         2.64339519755716    1.84018243065636   -0.52650147173702
