35
 energy: -49.713672072471 gnorm: 0.112168763792 xtb: 6.4.1 (79825abcba525fcdf90b791dcacef51065a7a4e7)
C         3.68603727166666   -1.44565381761763   -2.63406662981466
C         3.14258024853785   -0.06995814067489   -2.99127841969277
N         4.14531286996741    0.99917243194770   -2.71312542512897
C         3.69101862056823    1.78329431320984   -1.77846077243283
C         4.16318220397899    3.20031058268935   -1.69920579272294
C         3.75796899295693    3.77720954224702   -3.06093705071500
N         4.43280947926642    4.41250550494487   -3.96682564955012
N         2.41496121954110    3.65933555441422   -3.37786872457494
C         1.31351493233463    3.03348598745198   -2.62087771852714
C         0.01700816908765    3.82026487030152   -2.94442219973516
O        -0.14307915256780    5.04882876683447   -2.23488097391298
C         1.18770968985367    1.57772141584668   -3.12207038216008
C         1.90382063888590    0.52637034873992   -2.22663881852817
C         0.90166684080048   -0.53425211542015   -1.67431259944019
N        -0.41168701911826   -0.07028836205614   -1.20066588276877
N         2.58728331242544    1.25065291909519   -1.13675330365131
H         4.33842567735490   -1.37613737544961   -1.75552550863310
H         4.22739865574172   -1.66622812465747   -3.56003472147981
H         2.97115193258981   -2.26430665244289   -2.52873791839591
H         3.05871587277214   -0.01861131746874   -4.08537378557531
H         5.24229532249027    3.31412556750616   -1.56794973354948
H         3.55427903544004    3.80968529640914   -1.02847977530451
H         5.40462190425385    4.57441569640158   -3.67431366189512
H         2.05981565285852    3.84822802329142   -4.31813297180637
H         1.55238106022486    3.23230834749562   -1.56732538435680
H        -0.81307222567625    3.13472012132400   -2.74536811373018
H         0.00785349967297    3.97600069680496   -4.03050777392592
H        -0.29583468161617    4.88638632904682   -1.28454131802421
H         1.53698845238714    1.61516917794906   -4.16258573668885
H         0.12517516964555    1.30499707573362   -3.17744806735457
H         1.46438399643922   -1.15342171742408   -0.97615663620781
H         0.80649254614821   -1.18801458026668   -2.55022195306291
H        -0.41510734493098    0.16505883494853   -0.21122334835334
H        -1.05071720438614   -0.86425097635817   -1.26592590324519
H         1.95334003908656    1.74896925548542   -0.51542390759711
