35
 energy: -49.718732015286 gnorm: 0.127746582732 xtb: 6.4.1 (79825abcba525fcdf90b791dcacef51065a7a4e7)
C         3.69493679370856   -1.36646565232065   -2.53487650907176
C         3.05630139880570   -0.13887655671543   -3.16784909668394
N         3.98674531391442    1.02725069654125   -3.15043191416647
C         3.71223573737922    1.66189323618982   -2.04738986584080
C         4.23679059914708    3.00513111517666   -1.65026376296152
C         3.55270504537764    3.86752309946713   -2.71779792565264
N         4.21955737396941    4.82348976464202   -3.28443758476649
N         2.26941097486527    3.65116781046498   -3.19146081697823
C         1.17321465449747    2.87920102798789   -2.57475351825567
C        -0.04188826728253    3.73905622604277   -3.00927139988174
O         0.14920630016662    5.11387099281096   -2.67488660599453
C         0.96574439002427    1.45792669938582   -3.14326642915326
C         1.85760448852971    0.46338308777574   -2.34613389465840
C         0.92413257815213   -0.63711020223257   -1.75297178876505
N         0.03761741490714   -0.06638680528701   -0.72687839774830
N         2.67126916023960    1.12812352977527   -1.30900955489178
H         4.53068153748934   -1.43376300628011   -3.24147362183929
H         3.02530868686595   -2.21674001725368   -2.70153120034194
H         4.08329599233941   -1.36409845425277   -1.51432803314506
H         2.72974771156108   -0.38776281477048   -4.18673708858321
H         5.31354664192322    2.95415496640890   -1.83099835893377
H         3.98407777418989    3.28616802447569   -0.62599403769746
H         5.17350197254811    4.88306951887875   -2.90676375760833
H         2.03841831634548    4.01430050162793   -4.11919063898326
H         1.28917422745566    3.05791445689306   -1.49717532005955
H        -0.90851307741352    3.45443674656261   -2.40381224123267
H        -0.09115331623715    3.62883956447481   -4.09984215893325
H         0.80303542089064    5.51789710169450   -3.27666534103395
H         1.36750543267525    1.58993523087458   -4.15679098752764
H        -0.08970006769350    1.15386928143687   -3.13995707537895
H         1.54576017560861   -1.26496107061180   -1.11514282802989
H         0.45134324643812   -1.18306271936031   -2.57885725513406
H        -0.58530043746105   -0.76432754629325   -0.32781874174704
H        -0.49362954057845    0.71713947113316   -1.11009939293828
H         2.13517522364462    1.68428334779509   -0.64602913822064
