35
 energy: -49.720278887647 gnorm: 0.105452199349 xtb: 6.4.1 (79825abcba525fcdf90b791dcacef51065a7a4e7)
C         3.52601920033334   -1.57913914791691   -2.19203178679585
C         2.90644735491064   -0.41798313850498   -2.95579345551159
N         3.91688783992305    0.60158862142582   -3.36244497054077
C         3.83897876904321    1.53339833736437   -2.45663636621836
C         4.56860191243887    2.83811826345766   -2.40652767049409
C         3.74026183163210    3.96520747258857   -3.03489443269523
N         4.11061678867028    5.16352662007910   -3.36125806290880
N         2.46823797429051    3.66770160122865   -3.49473723025799
C         1.37641893974485    2.93921692888781   -2.82009046999558
C         0.12216273244812    3.81689301846514   -3.06739167216851
O        -0.99147848498988    3.35953096552805   -2.29988326836483
C         1.17041260088763    1.45511216145664   -3.19594413038583
C         1.90514979548088    0.52324572075486   -2.19009230733036
C         0.91797105902071   -0.06018015687559   -1.13208051623351
N         0.26949868199615    1.06992189938309   -0.44881270708987
N         2.93439407201559    1.27289197557888   -1.44293525153495
H         4.40387345447143   -1.29507910959096   -1.59961345370426
H         3.95457021703446   -2.30551671904037   -2.89050278055383
H         2.73013884631312   -2.10875995460774   -1.66437287338401
H         2.51623107998519   -0.88418783521536   -3.87072452175170
H         5.50321449742801    2.80016211696963   -2.97197066311728
H         4.71300204049219    3.21401190811558   -1.39172396281241
H         5.09190200953690    5.37252766826687   -3.13855773040014
H         2.14001064661032    4.29780140214541   -4.23036394154807
H         1.52214956076878    3.03878395888363   -1.73592771092131
H        -0.19167306198623    3.95276382789907   -4.10742715589615
H         0.45914586168660    4.80852964286045   -2.74025483560157
H        -1.66937030100916    4.05063040372587   -2.42522884808753
H         1.43789011469914    1.35827439325354   -4.25667427174895
H         0.08060773542229    1.34682445325123   -3.11213480861065
H         1.34454202806737   -0.64001104607562   -0.31398718121495
H         0.20363969179778   -0.73776555132996   -1.61611505770520
H        -0.46659927480328    1.46772941091452   -1.02700430258134
H        -0.17737861583469    0.61565867660505    0.34927293615025
H         2.74235173251014    2.11268555651433   -0.90060696791285
