35
 energy: -49.721034380224 gnorm: 0.111280972902 xtb: 6.4.1 (79825abcba525fcdf90b791dcacef51065a7a4e7)
C         3.69087270728400   -1.35338114166664   -2.52629246341069
C         3.05589919706727   -0.06689667738547   -3.03349144322655
N         3.97067333913014    1.11091722888393   -3.07620761574023
C         3.77229204717463    1.73897320528046   -1.95325660790530
C         4.21359385870925    3.12569062605483   -1.60768108289066
C         3.58319620366337    3.86660791676605   -2.79299224785317
N         4.24983599603299    4.69460559353476   -3.53438016948380
N         2.35596774539980    3.50109118068111   -3.32055047010125
C         1.16495404628507    2.94989800230374   -2.64558421560558
C        -0.00168299149714    3.85031714092658   -3.12811425465639
O         0.22957334480302    5.15962374096569   -2.60784250017675
C         1.01377351631370    1.45564582552132   -3.00700700594543
C         1.87763746919747    0.48640834579890   -2.15011175613923
C         0.92828824069098   -0.67229185783105   -1.71371009537406
N        -0.30816385019356   -0.20051711290347   -1.07096849153378
N         2.75645899733314    1.18750651537049   -1.19319431558696
H         4.62492359460097   -1.65547069418229   -3.01472722870946
H         3.02931652928940   -2.17160889657273   -2.82958909473680
H         3.79731606140006   -1.27186145559284   -1.44260799878480
H         2.71098761288243   -0.23705182289746   -4.06247037557703
H         5.29721263434278    3.26597652848620   -1.58016113955695
H         3.84308183629760    3.24640368033503   -0.58781678140670
H         5.15282432850582    4.98189062414867   -3.13653981381210
H         2.15353067211228    3.92740556618241   -4.22784362809898
H         1.29686480395253    3.13557819351553   -1.57102276625101
H        -0.97677246808053    3.47487998595555   -2.80119675730975
H         0.03088478459246    3.91493100770820   -4.22295840768912
H         0.88360524158068    5.61245374097302   -3.17357612192698
H         1.28687305680601    1.36011050277398   -4.06642186976021
H        -0.03297301358561    1.21403866592809   -2.77815648818568
H         1.42401221115219   -1.33058589681504   -1.00072337916553
H         0.73844255872775   -1.41431844148596   -2.49922639615215
H        -0.37418668354074   -0.46443261914845   -0.09097557151297
H        -1.15745440037044   -0.54759543018405   -1.51956327754434
H         2.31040723415185    1.70000941171284   -0.43514941211235
