35
 energy: -49.727327390126 gnorm: 0.114947451374 xtb: 6.4.1 (79825abcba525fcdf90b791dcacef51065a7a4e7)
C         3.48407466972148   -1.33491845844663   -3.00010487429043
C         2.90816714349248    0.03132575806818   -3.34243760926709
N         3.95798023862186    1.07232111155912   -3.14217994121353
C         3.79415288944663    1.65322447694653   -1.98868946044320
C         4.32207770802950    3.00340955813706   -1.62065337947393
C         3.61720064952278    3.92936461028998   -2.61919117946449
N         4.05212756305438    5.08958063985273   -2.99916767221931
N         2.47163002627081    3.47995261956834   -3.25457030781079
C         1.25100225037029    3.01869794477044   -2.56520907312150
C         0.01758350186181    3.80648589984355   -3.07775189382388
O         0.05911313835077    5.22424483942112   -2.91440923962035
C         0.86401139501873    1.54394876085786   -2.81345178540244
C         1.86535509325420    0.49099538373726   -2.25797752717890
C         1.16974152811563   -0.73953626256197   -1.59751542752846
N        -0.00690660708588   -0.31790517957012   -0.82148168952004
N         2.76655442681085    1.08983788712726   -1.25359495566161
H         3.70333328559704   -1.49204350069031   -1.93731841509289
H         4.44697934808574   -1.48633969112178   -3.49913219803788
H         2.81995436974787   -2.08524522198860   -3.43404224524469
H         2.48121214638859    0.12208586729281   -4.35049834297206
H         5.40977001289651    3.01246275561203   -1.72794092683249
H         4.10894596603900    3.20102570301816   -0.56827668493813
H         4.99368878226277    5.26616623861079   -2.62704194169646
H         2.32801058860606    3.99434191992543   -4.12674156138509
H         1.27975446964761    3.22819027713661   -1.48731940087832
H        -0.87149651856632    3.46076525841464   -2.54049818696226
H        -0.17340352654681    3.58462521173635   -4.13521163918468
H         0.69566752888426    5.51286551169013   -3.59585173617716
H         0.81794229985558    1.29733394800976   -3.88262388576714
H        -0.05109815432942    1.27275213157178   -2.26989703263796
H         1.82548208537288   -1.36205883087521   -0.98931042716754
H         0.85244787981280   -1.27546462342763   -2.50072428872177
H         0.01405626340302   -0.39926657486345    0.19209485680112
H        -0.84676741411914   -0.80879328307146   -1.13238002907676
H         2.24546364341511    1.56344794989711   -0.51846817633372
