35
 energy: -49.719289877015 gnorm: 0.125917811105 xtb: 6.4.1 (79825abcba525fcdf90b791dcacef51065a7a4e7)
C         3.57153434087692   -1.25589099858216   -3.02734548890924
C         3.00102972947072    0.15301546443151   -3.09799573998760
N         4.05089626253141    1.13661663455108   -2.70278569301510
C         3.62734418853079    1.75387240515304   -1.63769069124674
C         4.04172639918217    3.17933841694654   -1.45469080506354
C         3.65999399298021    3.73538841998618   -2.83179318271464
N         4.41923859127521    4.44013003924331   -3.61059463429836
N         2.41615737025278    3.46794231836067   -3.37892468796793
C         1.22930200729940    3.05267604494274   -2.60637356975961
C         0.03207204580842    3.81131548343053   -3.23545102432459
O         0.34611405863103    5.20319115580030   -3.28550785152729
C         0.84055532104844    1.55991513766459   -2.68891074807732
C         1.84268393140233    0.52555530832089   -2.10087197013130
C         1.05181428128584   -0.73767648236778   -1.63928002327690
N        -0.19744824467510   -0.45679242923165   -0.91474622313563
N         2.55335394641974    1.17773834839180   -0.98321267486795
H         4.49407046621303   -1.35495265919530   -3.61163270638798
H         2.92463586465484   -2.06670746810687   -3.37840257180307
H         3.91460185894383   -1.49098408712744   -2.01770021785530
H         2.86608240474317    0.48659841871588   -4.13589073644463
H         5.09224222624430    3.35453974211651   -1.20895085634114
H         3.34810812707662    3.75462689579719   -0.83832170829990
H         5.24662673029998    4.67063191148140   -3.04624073302718
H         2.25791941452881    3.72940212151620   -4.35488836759258
H         1.28376866140880    3.32075588728093   -1.54254724503733
H        -0.93214230789558    3.78982163011710   -2.71732335650956
H        -0.16103505691460    3.52103269064995   -4.27581868608819
H         1.32129181175148    5.22282409999022   -3.32436861795230
H         0.77693675764862    1.35338627918807   -3.76565059858900
H        -0.16019137958108    1.46128293775538   -2.24709338553048
H         1.64937084270063   -1.44709157616764   -1.06735370521037
H         0.90125118506014   -1.31346563203523   -2.56095149478208
H         0.05601869803591   -0.09482752763546    0.00129550757512
H        -0.84431813244383   -1.24267541973909   -0.83142545889889
H         1.97953842136466    1.57038798917560   -0.23969706482484
