35
 energy: -49.729749710149 gnorm: 0.107564058162 xtb: 6.4.1 (79825abcba525fcdf90b791dcacef51065a7a4e7)
C         3.65821512289566   -1.39782556778361   -2.96130411247846
C         3.04754281001886   -0.03639884492390   -3.25976859209300
N         4.10760333609776    1.00034811836161   -3.09451297708056
C         3.84953292793983    1.63353085726962   -1.98667376714166
C         4.35978105810743    2.99544239054342   -1.63739052716778
C         3.60136017920626    3.79184731369977   -2.70596863552865
N         4.22397063992269    4.54324821543658   -3.55884478381643
N         2.22921821333535    3.89574343777161   -2.86230761963499
C         1.14702911518648    2.99233228102914   -2.42570479693509
C        -0.20023993604765    3.66405657611221   -2.79757092402776
O        -0.26193323579026    4.96225441338988   -2.20653600696256
C         1.17942084951157    1.60780680230782   -3.11003769429798
C         1.90283522062388    0.48377138239077   -2.31431934065957
C         1.00119562880343   -0.61152888236300   -1.66496587976117
N        -0.26657879414233    0.04361699340355   -1.30714767374219
N         2.80807841852304    1.04490992967358   -1.29196165968286
H         3.89859968456155   -1.54030609047371   -1.90102478998820
H         4.59158256615225   -1.42603323602743   -3.53329329657599
H         2.99506313263040   -2.23125361186772   -3.20208367186017
H         2.85992058736168   -0.01748152729267   -4.34196748913118
H         5.44488150648443    3.06271861083317   -1.75007623149871
H         3.96453450181616    3.36069128006339   -0.68747083679965
H         5.25106383354730    4.57045985344708   -3.58201072947456
H         2.12362546628266    4.14954785779326   -3.84736553678761
H         1.15797547401107    3.00212751711693   -1.32736782043773
H        -1.07931796882651    3.09258126488582   -2.48250684199562
H        -0.32106008972349    3.81007057955920   -3.87831221180737
H         0.53249689652331    5.42215524325843   -2.53855897884716
H         1.69838708972034    1.86139985195392   -4.04407988586194
H         0.14544444748704    1.29651915828433   -3.31107916457744
H         1.58821800431172   -1.00042109910343   -0.83333439181183
H         0.81455702039131   -1.43329293693597   -2.36749742356581
H        -0.04897499984570    0.92814295441999   -0.85475519799669
H        -0.87996074870704   -0.46552212035821   -0.66876297499940
H         2.35350758973429    1.65384189858859   -0.61459860509560
