35
 energy: -49.722752376117 gnorm: 0.119355390031 xtb: 6.4.1 (79825abcba525fcdf90b791dcacef51065a7a4e7)
C         3.47896320702445   -1.45042443056980   -2.43255098991455
C         2.81388162618617   -0.15141295322813   -2.86350354787519
N         3.78538280960951    0.91920398725675   -3.23207759192831
C         3.85055600830706    1.71744829103971   -2.20573119736310
C         4.42015346607238    3.09825651022042   -2.28372065217077
C         3.56089816337403    3.76248779170062   -3.36621746126869
N         4.11871138546946    4.16648112206432   -4.46406928224038
N         2.17949206945032    3.81187527589872   -3.28084804205613
C         1.18088678649287    3.12242304466388   -2.44099680181366
C        -0.11841549789895    3.94972340385375   -2.61993685796161
O         0.06384425527856    5.28578738476542   -2.15072434142983
C         0.97657463793772    1.63068010109567   -2.78629536051916
C         1.85020328915699    0.66982717799442   -1.92985718318582
C         0.96773275044401   -0.03927423507031   -0.85621035863657
N         0.15057737852492   -1.07483676806930   -1.50764671051921
N         2.92106835239833    1.40627721752534   -1.22953845595590
H         4.02066856626199   -1.22483843567904   -1.50629835520975
H         4.21376981594819   -1.79473430340447   -3.16784143403132
H         2.78968584842956   -2.25630610358435   -2.17216835924791
H         2.32582887435363   -0.30112464737324   -3.83618301468359
H         5.48038672277704    3.15256362459123   -2.54376549772002
H         4.24743349208732    3.62834239006062   -1.34502433046699
H         5.14119395655654    4.19839143191271   -4.36553657880341
H         1.80939526900475    4.05700410758955   -4.20217633501243
H         1.52710363665262    3.31290437360764   -1.41610136563582
H        -0.92347355390039    3.38365085102108   -2.14027969782883
H        -0.21000901595703    4.00000746614154   -3.71218292934052
H         0.83400514976720    5.65248252132056   -2.62533379708230
H         1.35774461172831    1.73469763373725   -3.81097093409061
H        -0.07803641650198    1.32589739320104   -2.74985501993589
H         0.22929040849497    0.68466536749415   -0.51261506680090
H         1.56485875454010   -0.48547509608719   -0.05120971642419
H         0.62465859370579   -1.68240785538332   -2.17134913839599
H        -0.31487524667595   -1.65512550560177   -0.80792253554186
H         2.65970637854232    2.05618737919099   -0.49091799243287
