35
 energy: -49.720042796074 gnorm: 0.111621259236 xtb: 6.4.1 (79825abcba525fcdf90b791dcacef51065a7a4e7)
C         3.64189172072075   -1.49429933386945   -2.50233244316443
C         3.02691268273645   -0.21174346588192   -3.04301316929637
N         4.04586787416001    0.87802818164560   -3.03984191742209
C         3.76992602487965    1.66164024498278   -2.03752629280320
C         4.19679180114969    3.07554199465644   -1.80125877725171
C         3.51651947833085    3.95617742748647   -2.85626256605417
N         3.89707335264830    5.18039718923603   -3.04628765844322
N         2.42990913643980    3.43874852839800   -3.54150351901709
C         1.28936670799320    2.88692933505825   -2.78482290425719
C         0.07999855910850    3.79747592528633   -3.12092621956509
O         0.36597078755720    5.07960086729113   -2.56162175280633
C         1.03233116551408    1.39396431543028   -3.08691515737906
C         1.85573353562182    0.41581779334057   -2.20080591823636
C         0.87037915956145   -0.63188625555435   -1.59608325834161
N        -0.40073596276558   -0.02900389554136   -1.16561704811930
N         2.68718225121789    1.23011894030890   -1.29242077412703
H         4.56528148651541   -1.69681798369569   -3.05786391182292
H         2.91985838769088   -2.31273312203397   -2.41302358277680
H         3.99880808208856   -1.31193721560751   -1.48660490525001
H         2.68727914369630   -0.35704433939801   -4.07754259036016
H         5.22052030940788    3.25317507175202   -2.14051321727613
H         4.05430071258191    3.49354638946698   -0.80278864826680
H         4.76227967032953    5.36300870943365   -2.52258103289555
H         2.16867458368850    3.89972928930331   -4.41623710582384
H         1.39178938696798    2.96489776819631   -1.69395608656758
H        -0.78329213345548    3.40293828367151   -2.57531020925810
H         0.08147623793945    3.97576426010973   -4.20357594218562
H         1.29595357142944    5.26176496270201   -2.79574891237573
H         1.16181816111042    1.28589235271973   -4.17209890690983
H        -0.03772124354221    1.17407164702623   -2.97263514169341
H         1.44682891839795   -1.12056841674884   -0.81101079582865
H         0.77095550490416   -1.41450120808297   -2.35851979580082
H        -0.29352461256188    0.68406296287192   -0.44837377333082
H        -1.00320248287677   -0.80853368861997   -0.89661430239506
H         2.42199171433470    1.50252531350567   -0.34811034189304
