35
 energy: -49.728651498129 gnorm: 0.109434993502 xtb: 6.4.1 (79825abcba525fcdf90b791dcacef51065a7a4e7)
C         3.60557538373560   -1.32162447925299   -2.75701499645155
C         3.04883102286777    0.04920448944642   -3.11246977499507
N         4.04086248692659    1.14957085351003   -2.93654526660875
C         3.66638455655846    1.77719448980613   -1.85919515710590
C         4.10797964540456    3.17301899486602   -1.55289033959962
C         3.64744565071756    3.85546297081513   -2.84652893742258
N         4.30916765591970    4.69381969152311   -3.58064526300823
N         2.37270495712211    3.54352969658314   -3.28895815138250
C         1.20874206833460    2.91408993242088   -2.63558007075475
C        -0.03540796680870    3.74951821432369   -3.03405478149375
O         0.22441761900539    5.13723417365745   -2.82149646957364
C         0.93515083114054    1.43745335277260   -2.99746923940911
C         1.83697288243124    0.45586574173147   -2.19550014811235
C         0.96449615918838   -0.72151238533434   -1.65990547592977
N        -0.21216574976413   -0.17950894500403   -0.96262433278176
N         2.65309750334153    1.13538529324842   -1.16995117389672
H         4.64311159279129   -1.37722848072785   -3.10730700594221
H         3.03286096478729   -2.11316251934056   -3.25159340765523
H         3.63439044530552   -1.46728905491224   -1.67521132182121
H         2.62221813590001   -0.04145471540954   -4.12068442279670
H         5.19892497834567    3.12443317788685   -1.50657801032674
H         3.82661218074743    3.62096300138348   -0.59782359525219
H         5.27371832129721    4.69982532191679   -3.22595735398222
H         2.28813280833825    3.87413914906106   -4.25303829632175
H         1.42839329514633    2.98319721187926   -1.56155148553156
H        -0.83685657201396    3.52881254053647   -2.32159655100498
H        -0.34070721332078    3.59778779264529   -4.07697835146510
H         1.04061620499417    5.28675042690598   -3.33562876736824
H         1.23866512280175    1.41293871234794   -4.05262245803290
H        -0.15548496400559    1.32246615820985   -2.93650724499720
H         1.55754121359151   -1.39226736763806   -1.03875439066027
H         0.60042850941482   -1.21237994809606   -2.57105007974937
H         0.02966841431297    0.32747675267491   -0.11475743549422
H        -0.69744043847556   -1.02522524238078   -0.65886866083800
H         2.12716312026091    1.54519929473017   -0.40073145309323
