35
 energy: -49.726854564853 gnorm: 0.111802878589 xtb: 6.4.1 (79825abcba525fcdf90b791dcacef51065a7a4e7)
C         3.58089573462922   -1.47718098001649   -2.62841305144154
C         3.02854523448702   -0.12305772979364   -3.04882184667570
N         4.07552206484913    0.93845414943499   -2.99484013217757
C         3.75638328158083    1.69882246128863   -1.98745794882586
C         4.14039642903516    3.12701382356183   -1.76394455721844
C         3.57629229356035    3.91204486121827   -2.95425332077052
N         4.15689017443758    4.85177725754306   -3.63208361757752
N         2.33484304442185    3.57954760332496   -3.47025638305735
C         1.21007013159145    2.98341037246564   -2.72365525704872
C        -0.00942379734551    3.83643480341898   -3.15933368282627
O         0.05271080368386    5.12832551891699   -2.55468202809512
C         0.93819243707201    1.48008919251878   -2.95252079556850
C         1.85936983940023    0.48523587476859   -2.18986053021853
C         1.07708795874734   -0.64974686781321   -1.45900778948899
N        -0.12944464973774   -0.26448769459016   -0.71043823713187
N         2.70803638818263    1.21378383092648   -1.22625279127488
H         4.52979124391914   -1.58865933985978   -3.16641636623657
H         3.12000498237680   -2.36328193345645   -3.07735278295553
H         3.77885351625670   -1.62803330120121   -1.56520848713766
H         2.88272618763745   -0.14838970488229   -4.13731139487568
H         5.21956151635759    3.29471957918794   -1.71984674365924
H         3.61546576257475    3.60160429120885   -0.93256878012231
H         5.14451999059858    5.10507210597457   -3.50313937906446
H         2.16539408425872    4.08838837514782   -4.34104550897881
H         1.40725444796152    3.12151206582894   -1.65192481597381
H        -0.97247070344950    3.42084497125729   -2.84556093772687
H        -0.03183187810245    3.85087879004420   -4.25624232706517
H         0.92199947895943    5.49348602401213   -2.80739187212500
H         0.99327384698911    1.17895030725680   -4.00720159817577
H        -0.12492427141444    1.34728711322594   -2.71050567147698
H         1.79761784731228   -1.25829037244187   -0.91315540728810
H         0.64643108475568   -1.31425403567145   -2.21837962218372
H         0.13619226994670    0.10012061730977    0.20109582098521
H        -0.71126797139069   -1.09604101716649   -0.59643922722046
H         2.22718707034589    1.89483890598026   -0.64212832198187
