35
 energy: -49.725800030363 gnorm: 0.110358195417 xtb: 6.4.1 (79825abcba525fcdf90b791dcacef51065a7a4e7)
C         3.58129590722905   -1.49802139412003   -2.55484769172687
C         3.06383148325510   -0.17730442608850   -3.10568494420902
N         4.07100123126474    0.91275423470599   -2.95316218596431
C         3.71965456465642    1.63137228097869   -1.92604388812233
C         4.25509312067744    3.01019621749562   -1.70399667967022
C         3.58197833355896    3.92259475440803   -2.73635684646422
N         3.94650337701610    5.05898781892807   -3.24170530399463
N         2.44403557542262    3.45484256415872   -3.37220586714509
C         1.22541884771273    2.89913817977744   -2.75246974882960
C        -0.00719432299441    3.75458726714450   -3.14426488955410
O         0.28015876061538    5.10994152595806   -2.79946206345113
C         1.06981376066054    1.41664833972928   -3.15778745240036
C         1.87110823591829    0.42014997788444   -2.27185866150998
C         0.89499617534938   -0.64913030570942   -1.69035935802810
N        -0.20143969288579    0.04087293929302   -0.99306037159086
N         2.63941920885699    1.12435241550686   -1.22622293617324
H         4.41715659834623   -1.80662227546429   -3.19389391522954
H         2.78979873970853   -2.24851629079456   -2.45773066568104
H         3.85986489255187   -1.40809794914348   -1.50286824531043
H         2.81457705143015   -0.26468814495074   -4.17196385607568
H         5.31612912706251    3.04260923337187   -1.96441769671200
H         3.94974139076528    3.50215400371560   -0.77840938667893
H         4.75983487806477    5.50715274336395   -2.80143536069785
H         2.13869428006313    4.05236462987918   -4.14398282100834
H         1.27076487268951    3.04412104170417   -1.66458943334221
H        -0.85861715157870    3.56207493254616   -2.48347312711061
H        -0.29598948152653    3.58523411541506   -4.18917454349137
H         1.24182075103299    5.26419651639986   -2.73404896901375
H         1.48444542447825    1.44253720974616   -4.17438990658456
H         0.00226709994031    1.17395835133550   -3.06907132124846
H         1.53354284048776   -1.16817561882362   -0.97601107013756
H         0.47851794175670   -1.15314336840262   -2.57138002542217
H         0.19807975840195    0.57804375361957   -0.22740492555702
H        -0.86510404197192   -0.60778783301557   -0.56669911905814
H         2.16823074843832    1.75180440326867   -0.57773323385477
