35
 energy: -49.722613755400 gnorm: 0.108770519586 xtb: 6.4.1 (79825abcba525fcdf90b791dcacef51065a7a4e7)
C         3.48404640017217   -1.41270071686451   -2.57174974605986
C         2.90613279706659   -0.08314585599327   -3.03411776555548
N         4.04082293875055    0.88116773832618   -3.12609376595209
C         3.87134281341535    1.69777889939952   -2.12646827226881
C         4.47269294049451    3.05814722432223   -1.96857273454017
C         3.84320462190842    3.76708532181730   -3.17375879697209
N         4.61069271418550    4.39379111683898   -4.00913098910701
N         2.48355746628339    4.02933701850488   -3.19812112881088
C         1.43256373225619    3.25534385943953   -2.50946029642110
C         0.10526935802877    4.01307358146507   -2.77169520189639
O        -0.89098080475117    3.58156044632311   -1.84448002532869
C         1.28389688061554    1.78567602813425   -2.96139630108717
C         1.89311279394949    0.65510525848372   -2.08354815244268
C         0.84336401990557   -0.29450243649082   -1.42737038716689
N        -0.47162847699097    0.36339811099112   -1.37773607494927
N         2.95179143158039    1.20852738434925   -1.21609185854231
H         4.24914104996716   -1.27600856433717   -1.79830090282360
H         3.86015698652010   -1.85647570368967   -3.49951408735698
H         2.65195896095801   -2.01844963392434   -2.20699446985212
H         2.50152289192353   -0.11441691339279   -4.05491518294127
H         5.56406539501113    3.06923059231561   -2.02731343288372
H         4.14549684417051    3.47202573302251   -1.01273734075572
H         5.61528554166956    4.36019194294299   -3.79497703939007
H         2.23866010447005    4.40155146826589   -4.11865754086631
H         1.59800086281009    3.36719244065392   -1.42933052110485
H        -0.18407203185320    3.87394127702556   -3.81838109279790
H         0.22394463850566    5.09162413161835   -2.60870986915404
H        -1.07041230614727    2.62273125389205   -1.88078671272849
H         1.78954462788348    1.64963697597416   -3.92673766240025
H         0.25544032143721    1.56404011062230   -3.27695847056659
H         1.13083887665353   -0.63791259857282   -0.43395657058945
H         0.77174925979725   -1.22010869278565   -2.01201137465781
H        -0.96907594523073    0.13031993798024   -0.52180551843916
H        -1.04102808946382    0.10061353727597   -2.18379031063193
H         2.71081731288837    1.85894321717614   -0.47101186222365
