35
 energy: -49.719858285265 gnorm: 0.109210487605 xtb: 6.4.1 (79825abcba525fcdf90b791dcacef51065a7a4e7)
C         3.68845464430575   -1.42765384229860   -2.64896242838080
C         3.06786582179557   -0.11947367573226   -3.11695666875635
N         4.07674502315951    0.96593611083797   -2.94395272865665
C         3.72678301848259    1.67368344739609   -1.90884464934871
C         4.33941856845930    2.99436976943979   -1.56588651851875
C         3.67098498295083    3.80300837672969   -2.68419878770145
N         4.32651017842319    4.69035164423318   -3.36431161559139
N         2.35208277315360    3.77604686968434   -3.10583828412143
C         1.15129194720850    2.99015660988071   -2.76176730290070
C         0.00729143532480    3.75121827163065   -3.48057173635947
O        -0.25182422328734    4.97739690304960   -2.79661925292224
C         1.06009775858098    1.49429521841815   -3.13640557468744
C         1.86534755732727    0.46736362527636   -2.28968487364853
C         0.82667930362853   -0.53551794760777   -1.69833610786269
N        -0.08449800064192   -0.03651910828472   -0.65657891642477
N         2.65285922996331    1.12706725313520   -1.22941442192690
H         4.39950957654573   -1.81251560452056   -3.38961078484724
H         2.86520088943482   -2.13998298011289   -2.53071465147079
H         4.25486934678402   -1.29648979395199   -1.72466916102576
H         2.79507902660276   -0.15724868499813   -4.18038265867051
H         5.41952824473526    3.12796867598820   -1.66679023463258
H         4.07344764176328    3.26398058929268   -0.54190240313673
H         5.27862368616563    4.99771838859524   -3.12935819233293
H         2.43201148444388    4.23618740279756   -4.01566666773775
H         0.89685428508800    3.25436715253984   -1.72638614546133
H        -0.95112960470351    3.23105663806759   -3.38316238518302
H         0.18771382925344    3.86500507315309   -4.55687078889392
H         0.54711603800410    5.53757103442024   -2.76893059003142
H         1.32645990999331    1.40864528046119   -4.19837803054639
H         0.00164387824509    1.27455504186474   -2.94194602099932
H         1.35049645113130   -1.32612813213365   -1.16168492381554
H         0.17191620469084   -0.95040316958354   -2.47476140382054
H         0.35268880107547    0.05985200096044    0.25664441058907
H        -0.94142420643418   -0.59114180081057   -0.62392573281146
H         2.14060931137999    1.55311544598354   -0.45978045722838
