35
 energy: -49.724141387253 gnorm: 0.108617698230 xtb: 6.4.1 (79825abcba525fcdf90b791dcacef51065a7a4e7)
C         3.79248885755896   -1.44204934768779   -2.80333102690104
C         3.12373020031779   -0.11000591292826   -3.10977281009801
N         4.10102825282384    1.01355097566159   -3.01817355577093
C         3.80568631468247    1.69576120971272   -1.94944030892925
C         4.26235116228958    3.08263901227444   -1.62512238453361
C         3.60638645153891    3.86013880113690   -2.77252229218871
N         4.31594266569990    4.45029747793178   -3.68240553129410
N         2.24580149515514    3.75043305336835   -3.00658004855138
C         1.09127074278675    2.92216166057356   -2.60791705106316
C        -0.11053882892796    3.71847258295890   -3.17903394441952
O        -0.18392741925822    4.91778553105553   -2.40786046828141
C         1.09551864620948    1.47483896953485   -3.14783416901999
C         1.89640436956369    0.44679808585777   -2.29832509163135
C         0.92562421937061   -0.50447210110928   -1.53218707429744
N        -0.10248263250873    0.21794457959835   -0.76693391188117
N         2.67924911899423    1.21245184251878   -1.30813048409396
H         4.66439155886944   -1.57829576082300   -3.45410001243943
H         2.98433489214126   -2.17297430719567   -2.91185729320345
H         4.17182784752989   -1.48248489488021   -1.78019146767084
H         2.82636475533141   -0.22132206328122   -4.16138914843212
H         5.35444044221472    3.11702582197556   -1.59638771012324
H         3.93114479222962    3.36584003213163   -0.62408616440445
H         5.30391688678896    4.55575652282424   -3.41975958931046
H         2.07224535444302    4.10151940608446   -3.95131400099028
H         0.95087292047376    3.00665670496603   -1.52177299189151
H        -1.05353673516545    3.24747520555562   -2.88315556314162
H        -0.06443255964747    3.82856950966703   -4.26975490250210
H         0.68026543691168    5.34195496765890   -2.56947191205666
H         1.47735492108810    1.51061225098982   -4.17690731211879
H         0.15561225478193    0.96712557121894   -3.40323177751750
H         1.47872596659636   -1.12357175326295   -0.82632771645616
H         0.47189444424298   -1.19462954477170   -2.25433158511182
H        -0.55371632214769   -0.48061497010350   -0.18144330468611
H        -0.79246951669377    0.65835616183546   -1.37763090754773
H         2.31075379506566    1.74242202991627   -0.52098610522162
