35
 energy: -49.720590304517 gnorm: 0.117310834890 xtb: 6.4.1 (79825abcba525fcdf90b791dcacef51065a7a4e7)
C         3.68268484025453   -1.39139768018330   -2.43704544900914
C         2.97679883538974   -0.21549562459396   -3.09618410324532
N         3.97056434808355    0.89623671986969   -3.14479811539028
C         3.74466389445136    1.58071972342976   -2.06069459617233
C         4.43540121441360    2.89876087446508   -1.90968322642668
C         3.65042271462852    3.90076978451392   -2.76473240338045
N         3.99215675380707    5.13291178443585   -2.97612954749401
N         2.40998140945314    3.54163345076077   -3.26506859796075
C         1.17640491947943    2.94077843610505   -2.72177377464438
C         0.00849781008337    3.82019208421500   -3.23874228877443
O         0.08898025138688    5.15629198648620   -2.74194697861984
C         1.02872930496344    1.43685726067635   -3.04221805955454
C         1.85916397758385    0.42947247759201   -2.19634227344156
C         0.98359346767063   -0.66762724039272   -1.51513373529493
N        -0.24951705647684   -0.03256565465105   -1.02458587725179
N         2.72214519693772    1.14609104391730   -1.23650989167037
H         4.67359260775500   -1.61778096870535   -2.84829973435612
H         3.04444399779830   -2.26447209157933   -2.60889359371850
H         3.74466346567315   -1.21599173325326   -1.36106260757001
H         2.68127585829577   -0.35477055340172   -4.14498489049519
H         5.46401402651674    2.79852882526398   -2.26545894417337
H         4.29755569769288    3.30342302471769   -0.90508322119926
H         4.85825645484585    5.36870646857433   -2.47566002357607
H         2.23400677727911    4.18736411611566   -4.03835408292275
H         1.30645150983372    3.16681462156499   -1.65474264991931
H        -0.93962295038442    3.30186200972880   -3.06259307014704
H         0.07837536730910    3.87660280015156   -4.33229351767654
H         0.86653128314066    5.57771792633733   -3.15508355440004
H         1.19099947064680    1.34109774609056   -4.12414630134860
H        -0.03450725866653    1.16126259716107   -3.04289363026118
H         1.54633900380346   -1.07381045053698   -0.67502896341297
H         0.84844713275521   -1.45165746316239   -2.27058909042140
H        -0.51925104699231   -0.17614676032632   -0.05452166383755
H        -1.06639460410298   -0.29903411738694   -1.57658290284219
H         2.21114304917148    1.70180757547014   -0.55364136255709
