35
 energy: -49.709294619240 gnorm: 0.117244794548 xtb: 6.4.1 (79825abcba525fcdf90b791dcacef51065a7a4e7)
C         3.54765011740241   -1.33923896179303   -2.66319944482615
C         2.96924910556325   -0.03194069829528   -3.18464741078800
N         3.98783699664007    1.05789484005505   -3.15976315703925
C         3.76822522041144    1.63752518018224   -2.01493662781347
C         4.35188306954231    3.00111365966295   -1.82225829475086
C         3.80477834131299    3.82371688347950   -2.99499977336221
N         4.52648791723517    4.72711862363453   -3.58035898612526
N         2.57624684028467    3.47868716248246   -3.53321413609667
C         1.36371929951978    3.04845876747219   -2.81031202457487
C         0.13461708988793    3.95989603417363   -3.06175127572986
O        -0.45039712877649    4.28552995254711   -1.80073308603353
C         0.90173435678312    1.57647349585708   -2.88841970418768
C         1.83086555571815    0.50868945750303   -2.24304836389855
C         0.86865496968902   -0.55097185787610   -1.62210933913611
N        -0.20838737308810    0.20830182139301   -0.96790351530530
N         2.75724922956947    1.08557164031189   -1.24877616980978
H         4.31006837033810   -1.02296849233052   -1.94141756226971
H         4.13461990225145   -1.83417799003265   -3.44399641874077
H         2.76635279286570   -1.99012930230329   -2.26537545683884
H         2.81387646469026   -0.13990223787561   -4.26673708893056
H         5.43477414878386    2.93758469578080   -1.95634087348017
H         4.17753319704944    3.64530366665244   -0.95820079266181
H         5.46715770891316    4.66962406788404   -3.17044156513114
H         2.41097662498464    3.85180128487771   -4.47096527742345
H         1.57819549733959    3.23855267477048   -1.74992333850595
H        -0.54502351478819    3.54659743202546   -3.81401486341485
H         0.56819425687977    4.83263868470313   -3.56598380044227
H        -1.13823958819216    4.95448756204779   -1.98027619858790
H         0.75656791794571    1.24141194759298   -3.92414682760708
H        -0.10750247424079    1.62432548453376   -2.45763428108447
H         1.48040042565461   -1.08312344866055   -0.89408080014725
H         0.62550951277232   -1.31728173601690   -2.36865483026249
H        -0.00117840776196    0.67909131674643   -0.09051065330361
H        -1.07280715544869   -0.33084498367287   -0.89652950613689
H         2.31990118049193    1.66229269932430   -0.53297382506277
