35
 energy: -49.723821317862 gnorm: 0.104257118422 xtb: 6.4.1 (79825abcba525fcdf90b791dcacef51065a7a4e7)
C         3.63540841713322   -1.36472799493187   -2.54438102496793
C         2.99625101714970   -0.10700080857233   -3.11454293537980
N         4.04622850111948    0.94954388979285   -3.03002902033564
C         3.82808168384128    1.61623948202966   -1.93332605883718
C         4.30069710810908    3.02226869710307   -1.74130665039410
C         3.62914732226801    3.83016604933141   -2.85828692499119
N         4.23437382828170    4.69322490558665   -3.61225980598603
N         2.26636825705700    3.82527523886319   -3.10490227772715
C         1.11725006632354    2.98885522919883   -2.70761659272133
C        -0.12553228183768    3.72055665508813   -3.27747350536773
O        -0.13990269368532    5.10017392599393   -2.91019208990561
C         1.10607591719523    1.51103569030951   -3.15727877999010
C         1.83564275778844    0.49094413278910   -2.23689998159084
C         0.87086030841219   -0.54654471930286   -1.58336478295125
N         0.00094309164304   -0.14055845429853   -0.46850104645463
N         2.70201604976948    1.17881914381929   -1.25925882599038
H         4.67427280667506   -1.41076675267076   -2.89211497284718
H         3.07543000458665   -2.27795044987854   -2.77151756781828
H         3.51389830145509   -1.34300764207466   -1.45943347298274
H         2.76788117435776   -0.17045224614704   -4.18717314017384
H         5.37493865873932    3.22020589812210   -1.77994717478557
H         4.01244916355389    3.28862251246402   -0.72251188612463
H         5.21224700462142    4.78101420368935   -3.30852528518850
H         2.07621520966330    4.25826252282499   -4.01169300737464
H         0.96601263992782    3.02544654684221   -1.62025823492509
H        -1.06278428700365    3.29237106602655   -2.90755003085039
H        -0.12483972800407    3.64286357509666   -4.37195175453849
H         0.72045454648591    5.51951913374597   -3.10203128531488
H         1.49368074164559    1.45895897426901   -4.18349548354850
H         0.06841043696802    1.15193829655398   -3.18419141109070
H         1.46209778359484   -1.39383395811974   -1.23697980429206
H         0.23988858774382   -1.03740089051078   -2.33477386649822
H         0.68939679220229    0.17379575562705    0.21091743544546
H        -0.35326399783517   -1.04079090505150   -0.14121835545380
H         2.23703896951595    1.75306155554289   -0.55904782162836
