35
 energy: -49.722520646899 gnorm: 0.112553120272 xtb: 6.4.1 (79825abcba525fcdf90b791dcacef51065a7a4e7)
C         3.35099957693545   -1.59036858392625   -2.29022694244329
C         2.76920691324083   -0.36664381480905   -2.98268592463502
N         3.89212086421078    0.56590062157026   -3.29140446899180
C         3.90480063808086    1.56682943646292   -2.45905290713064
C         4.68551979652637    2.84092595141265   -2.52470772287480
C         3.75427124710667    3.94788743560154   -3.03336728883476
N         4.20328074594257    5.13589933179404   -3.29155907286531
N         2.45351515675792    3.72402223197744   -3.45280474384215
C         1.31996665343554    3.03473121766632   -2.80638950847376
C        -0.00925774295436    3.72163989189308   -3.21376012373501
O        -0.95152994597577    3.16119858376082   -2.29917026789603
C         1.29506135080827    1.53705214097373   -3.18402514117738
C         1.92225042397365    0.61894020758938   -2.09606555031319
C         0.88354820063752   -0.00346193048463   -1.11219063876834
N         0.44433772849463    1.06646168134382   -0.20287242721018
N         3.00117206343426    1.37459498334830   -1.42937903471678
H         3.20075483159283   -1.41637042781720   -1.21811274862256
H         4.41431347081370   -1.62747684672018   -2.54931886506968
H         2.71911527941708   -2.44239780761122   -2.54929470850407
H         2.33749259270320   -0.65388317427243   -3.95110252907101
H         5.49512314305145    2.79601366694298   -3.25764184722918
H         5.05927717990995    2.93538919801551   -1.50325968144952
H         5.19251660796873    5.24385986016551   -3.03474299853701
H         2.16766106347713    4.33715280496655   -4.21978839747923
H         1.49125923478070    3.16493455037127   -1.72923314337511
H        -0.23803319215208    3.50359623651187   -4.26197114888998
H         0.00892846912380    4.80616537814392   -3.04825162501070
H        -1.85635760805340    3.47640009549705   -2.48572366688923
H         1.74111032302802    1.37099447906373   -4.17373994030854
H         0.22948529287430    1.28393114639850   -3.26710529122869
H         1.31992229813437   -0.77461599235006   -0.47788596381719
H         0.10903884167239   -0.51034376023081   -1.70116158327393
H         0.02528966136324    1.84563770463239   -0.70454959582473
H        -0.27955120003336    0.71722219168712    0.42721620550434
H         2.59754816887283    2.00091693706306   -0.73579267692149
