35
 energy: -49.717245644615 gnorm: 0.108832839646 xtb: 6.4.1 (79825abcba525fcdf90b791dcacef51065a7a4e7)
C         3.61549276926906   -1.41868360655535   -2.47500347092575
C         2.97541359734067   -0.26109812095297   -3.22718627435541
N         4.01448930161004    0.80933350814484   -3.20769708350623
C         3.78131495034461    1.53506248558477   -2.15234141509002
C         4.37469550504820    2.86806807477200   -1.82347892581726
C         3.57013912605248    3.99686007039844   -2.47910065596749
N         4.11653441735917    5.11179843730041   -2.85059687106354
N         2.36937270355721    3.66243005046849   -3.08269522982973
C         1.16738144085716    2.90490734354521   -2.68359204792434
C        -0.00921663753796    3.62230536178506   -3.39463980368263
O        -0.04669888200998    5.01826005155241   -3.09739991001164
C         1.09073076139324    1.47564656428588   -3.26463411364023
C         1.85183203208511    0.44500893497340   -2.38232879793448
C         0.85725820275476   -0.50158255600948   -1.64132674693459
N         0.03767326056590    0.22566219702760   -0.65954389195513
N         2.71924247662954    1.09736081154123   -1.38153255676020
H         4.31014928843762   -1.85818683575580   -3.20065278115109
H         2.91825907774877   -2.20529047299812   -2.16799060058661
H         3.99413738579311   -0.92048665119871   -1.58014274195741
H         2.69645603015692   -0.42785223651008   -4.27651471237025
H         5.40239830521001    2.87468097585549   -2.19556810722754
H         4.40275499498637    3.10234951695501   -0.75750572228564
H         5.07925399685140    5.15916458038828   -2.49405090073918
H         2.01880190282146    4.35707853740401   -3.74637376674690
H         1.09164822108982    2.91008083370943   -1.58778293646074
H        -0.97077778244009    3.20778085719698   -3.07495683472098
H         0.12907009393972    3.67378160197441   -4.48190532500929
H        -0.13787581059532    5.18234090014467   -2.13946906473676
H         1.55671493181308    1.56389112683895   -4.25516017271757
H         0.08431651849067    1.04771318223911   -3.36675304971501
H         1.48750357362109   -1.22135844229832   -1.11964023412039
H         0.32562006480989   -1.15050719450238   -2.34838997923389
H         0.64162324868966    0.48475637650752    0.11667202984576
H        -0.87534385698872   -0.13520206420786   -0.37816903183721
H         2.24636623715377    1.66033709355903   -0.67747343044553
