35
 energy: -49.719854498894 gnorm: 0.112580751500 xtb: 6.4.1 (79825abcba525fcdf90b791dcacef51065a7a4e7)
C         3.47845530257554   -1.43258052653063   -2.43107488287878
C         2.98528541148562   -0.13052405162614   -3.04501039929716
N         4.07721368095669    0.88110825659642   -3.14588021348963
C         3.87292397823790    1.69954966041507   -2.15429169904429
C         4.46011564971349    3.05735827884289   -1.93357329298856
C         3.79718418885854    3.82886561441883   -3.08101413384133
N         4.38354924537158    4.40853128233699   -4.08091839509893
N         2.45100271629416    3.62061317047903   -3.33088646888055
C         1.26869201510725    3.05304438136411   -2.65419301901087
C         0.12222586945145    4.03940426721983   -2.99674426684435
O        -1.04486520745800    3.88608728737839   -2.18876019173873
C         1.06350229410933    1.60138666511025   -3.14087420678954
C         1.89899002469735    0.66006709469408   -2.22663715600655
C         0.93396779436710   -0.23907980403369   -1.39323239532766
N         0.05830557500065    0.63900161653340   -0.60159443002493
N         2.83602077328786    1.34133036958639   -1.31153571281822
H         3.51646929602742   -1.33753746054023   -1.33937921680479
H         4.42446813048471   -1.70930071253176   -2.90817837804546
H         2.77154675928991   -2.22315372072762   -2.69111718640694
H         2.70344525780209   -0.28774041945265   -4.09504066046998
H         5.52250429470863    3.08639201157363   -2.18882717514781
H         4.17578355533539    3.33009112704522   -0.91536602491608
H         5.41075194154297    4.37627186648729   -4.07752573096514
H         2.35772919661433    4.01984930118519   -4.26780490566415
H         1.41758121683019    3.11090982543883   -1.56743478110235
H        -0.12627778719455    4.00241201718796   -4.06234507783761
H         0.54902303094341    5.01898100640664   -2.74735917789946
H        -1.35308827057383    2.97717467140188   -2.36692769583165
H         1.32229137723332    1.58901088498265   -4.20808798360234
H         0.00067669550265    1.32533020711059   -3.11598569649286
H         1.56336829401503   -0.88084236250506   -0.77724604150924
H         0.37999642069546   -0.80439945535481   -2.15297585130122
H         0.44088182424844    0.82088584605141    0.32304067516666
H        -0.79361034986118    0.09356541236157   -0.46111777586304
H         2.46922756815748    1.57633836512375   -0.39148818987016
