35
 energy: -49.721404459544 gnorm: 0.110245423213 xtb: 6.4.1 (79825abcba525fcdf90b791dcacef51065a7a4e7)
C         3.80769055070054   -1.34442975129073   -2.59867254753899
C         3.06937116953858   -0.13093306577542   -3.14437827347340
N         3.96447269831119    1.06263210842489   -3.15317890002041
C         3.75309261400347    1.62801195192666   -1.99970911719894
C         4.24882559479226    2.99450679199433   -1.64743700443626
C         3.60762746997025    3.83635809473645   -2.75715478860183
N         4.31068933877503    4.43616862254668   -3.66576700541924
N         2.23135462404383    3.91801170534118   -2.88836300771780
C         1.12418125546731    3.02274878024870   -2.50031866698092
C        -0.15870150841824    3.75555105844474   -2.97132236011259
O        -0.01851689238800    5.17626439323323   -2.95214284146671
C         1.13557822017014    1.59185927624086   -3.08229536036318
C         1.91250117568784    0.50338577678661   -2.28758292645355
C         0.99865191989485   -0.61759984655445   -1.70229039427322
N        -0.23683596716666   -0.05906753346000   -1.13122707354777
N         2.74690954076548    1.08777281331929   -1.21902715734377
H         3.80469121553655   -1.44719547399165   -1.50701880583324
H         4.86126690114642   -1.31543310608607   -2.89578894115909
H         3.30845482111754   -2.21256488984292   -3.03393423656555
H         2.59436900969148   -0.36864838040963   -4.10592848492942
H         5.33895041453608    3.07144719127045   -1.66680704289879
H         3.90189985721322    3.23444367845518   -0.64043808021848
H         5.28661390159523    4.66812511175705   -3.44223848430643
H         1.99246204083016    4.26489148272308   -3.82030204221998
H         1.10272106381658    3.09197393703086   -1.40427704963222
H        -1.07158104377424    3.49858687733951   -2.42428675134279
H        -0.38352869305034    3.53044917480636   -4.02141817075027
H         0.71797440645781    5.28591715267443   -2.32093439598226
H         1.30269280881479    1.62526051263827   -4.16720423699872
H         0.08426903603389    1.30262437920307   -2.94994333911712
H         1.54842296318263   -1.19675768987692   -0.96082471357800
H         0.65615620820976   -1.30799662623728   -2.48314229215434
H         0.00587584482473    0.56597690307376   -0.36650034581515
H        -0.89196813039422   -0.78302204121273   -0.83174952022358
H         2.40096333665036    1.67063184244032   -0.45952069388870
