35
 energy: -49.721215902988 gnorm: 0.109065053248 xtb: 6.4.1 (79825abcba525fcdf90b791dcacef51065a7a4e7)
C         3.71553798426445   -1.34807273968333   -2.54567392237348
C         3.14804470808614   -0.09703491009320   -3.20015096444374
N         4.16310794735604    0.97143125472159   -2.96796849624018
C         3.74415722310310    1.65049195677795   -1.93928715400372
C         4.17586960769541    3.04438039441612   -1.61087518240292
C         3.70492092890354    3.74607787023546   -2.89038689290175
N         4.44641646238682    4.43620835935962   -3.69881072703198
N         2.34260682005809    3.70126234049990   -3.13554334462827
C         1.16529881910218    2.96936198379755   -2.62940629371139
C        -0.12125373257013    3.78586812978068   -2.91703812425680
O        -0.29085017850553    4.98951317784019   -2.16809113380699
C         1.10570910012911    1.54678510992229   -3.22856876166434
C         1.87728509035192    0.44471654421329   -2.44750084045492
C         0.94987361941573   -0.59277996599637   -1.74194747689249
N        -0.10137334560710    0.09932386994069   -0.98012460922239
N         2.59718865166394    1.13741267655055   -1.36054733740956
H         4.61542887150164   -1.71216811932366   -3.05548627204629
H         3.02445959819713   -2.19724495193430   -2.56710528789755
H         4.03113873314176   -1.20040592434407   -1.51081240992338
H         3.00873664970595   -0.16401732083114   -4.28772673306347
H         5.26635402679375    3.10543408396287   -1.56864566672455
H         3.64747029994202    3.51205451943117   -0.77777908845231
H         5.44735000480819    4.48514684264675   -3.47091901697370
H         2.10525224338564    4.12666635933188   -4.03476513585178
H         1.19873211307115    2.94968457585724   -1.53165636634478
H        -1.08615238356850    3.26895901784067   -2.93711671585667
H        -0.03219119318201    4.08604230306157   -3.96864768102627
H         0.39455192461198    5.64824995686003   -2.38980507665970
H         1.47748769909129    1.55526635329973   -4.26190266896406
H         0.03368200025906    1.30772924335586   -3.22264620460602
H         1.50022728745540   -1.24919650828201   -1.06839604460785
H         0.57778198634279   -1.37098696534356   -2.41990204426829
H        -0.31698913107063   -0.27922771504122   -0.06110063319268
H        -0.97330640892658    0.34214557713141   -1.45316312361229
H         2.21837534582524    1.71897974401942   -0.61587712607259
