35
 energy: -49.722722544995 gnorm: 0.106831558826 xtb: 6.4.1 (79825abcba525fcdf90b791dcacef51065a7a4e7)
C         3.65445297952556   -1.41497267975442   -2.74653194594939
C         3.16247199468761    0.00523806832102   -2.98410412791317
N         4.18057858018822    1.02177885851335   -2.58915377561856
C         3.65788983471310    1.74153807854982   -1.63858996546677
C         4.09880165738227    3.17076001855995   -1.62985339489677
C         3.67526960064957    3.72792281842429   -2.99422591305150
N         4.41594551718655    4.37262065418397   -3.84004425767699
N         2.34772921155372    3.63450633165751   -3.37752695898886
C         1.20302932296775    3.01770091840255   -2.67958698918752
C        -0.07849453146263    3.82836322853471   -3.00386317213661
O         0.02367536825471    5.13298395554917   -2.43292357520142
C         0.98182244108752    1.53637498379784   -3.05775693696535
C         1.85466206498588    0.51492068424578   -2.27370735014875
C         1.03812676190270   -0.69016669020098   -1.71216389507489
N        -0.21823194736164   -0.17240051422339   -1.14826413042569
N         2.46026824976747    1.25317023705081   -1.14774746060399
H         4.53011437370445   -1.62700923275229   -3.37146017633875
H         3.00790708317543   -2.20841659132081   -3.13584830991089
H         3.77876638561116   -1.71223033015721   -1.70320471170636
H         3.06244348950388    0.06814923177562   -4.07623547947429
H         5.17803675308042    3.26150258323348   -1.48259674531367
H         3.63209574424895    3.78157242404018   -0.85456777892376
H         5.34172525674036    4.64405225893091   -3.48584895061790
H         2.12988289599218    3.92302917873094   -4.33418945591202
H         1.45774929426301    3.20555620356511   -1.62773718630554
H        -0.98861967370979    3.43405807322103   -2.54037287143856
H        -0.18870391760407    3.81752004884926   -4.09549298202026
H         0.86794168115668    5.49206074776291   -2.76630850513562
H         1.17532778918155    1.50956934832116   -4.13845455265863
H        -0.00398135308463    1.25639106561935   -2.66250416020515
H         1.63317929908952   -1.23739434821124   -0.98148084451491
H         0.90958530335644   -1.47613592845337   -2.46675659821982
H        -0.03779979209400    0.21124473073068   -0.22378746753704
H        -0.90832214061773   -0.91343236546629   -1.01543941985273
H         1.87206071388789    1.89100005965791   -0.61535804635152
