35
 energy: -49.717730943547 gnorm: 0.125744781005 xtb: 6.4.1 (79825abcba525fcdf90b791dcacef51065a7a4e7)
C         3.46106194724239   -1.51171154054999   -2.79560401865434
C         2.91867419866978   -0.12427864723868   -3.10597457059879
N         4.02692235416708    0.86487644183470   -2.96726548934693
C         3.76053623787951    1.66392179652754   -1.97459567045276
C         4.46644691872028    2.97925654148667   -1.88111012575645
C         3.76277324281349    3.80352728715212   -2.96588812844651
N         4.25528390670913    4.80858091331018   -3.61929863352084
N         2.60145958969724    3.35414423704232   -3.57203609548344
C         1.38328762652036    3.04885108685923   -2.79694890049693
C         0.29846184076498    4.05749224320873   -3.25567307151437
O        -0.42630501300396    4.55667801826297   -2.13140774429907
C         0.87789873886971    1.59240133584236   -2.89496789346884
C         1.82788732213251    0.56908686346644   -2.20918306934520
C         0.88745195483087   -0.48149712398362   -1.54123761854631
N         0.07035653779573    0.15851262887367   -0.49852742221955
N         2.67252764632470    1.26562037482950   -1.21873837060865
H         3.73421952381012   -1.72471794333886   -1.75527192133164
H         4.32194829171801   -1.79253684312965   -3.41135876927686
H         2.68845753709278   -2.27801510704413   -2.88620712160110
H         2.65301657821590   -0.09747780539504   -4.17153645851310
H         5.46785137847234    2.97662808461036   -2.31911622954867
H         4.30843569433714    3.49546684797183   -0.93214575657682
H         5.19452181469659    5.09984472522726   -3.32064312465282
H         2.33491197509755    4.01058292908389   -4.30956319966673
H         1.53636952934259    3.25868448976580   -1.72966460592999
H        -0.34476928144675    3.64377601919211   -4.03907603242028
H         0.79571484893824    4.95773700167211   -3.63805789445035
H        -1.38386439114040    4.38748935425477   -2.21697931143449
H         0.75212978793403    1.33729876008169   -3.95571057873020
H        -0.09677120317564    1.40668504248215   -2.42384920241922
H         1.48736096770727   -1.23533019807715   -1.03203410292151
H         0.23443288003825   -0.90508984091499   -2.31442323471907
H         0.56432754959080    0.23925984329256    0.38683637925570
H        -0.86714196698052   -0.24475681591890   -0.46024702130663
H         2.23738914006461    2.02593322593676   -0.70024793949164
