35
 energy: -49.719572318300 gnorm: 0.096476290114 xtb: 6.4.1 (79825abcba525fcdf90b791dcacef51065a7a4e7)
C         3.66142541153235   -1.38518131879394   -2.93384534077977
C         2.90067087004242   -0.13851808607789   -3.36112486643166
N         3.89908609615464    0.96960486785175   -3.39448037171957
C         3.82874380822248    1.43808489240110   -2.18187702203676
C         4.50969313569281    2.72309836262256   -1.83230102412323
C         3.65917869368054    3.84563934481545   -2.43880671071554
N         4.18344623484530    4.99782656794031   -2.71675091998837
N         2.33234252085084    3.77151058885807   -2.82870484338335
C         1.12701502813912    2.94399745526542   -2.62791979374127
C         0.02784303014716    3.72055893119200   -3.39824768134333
O        -0.22267049571681    4.99577059603906   -2.80704200627543
C         1.07937552650370    1.49558327669850   -3.16280147746066
C         1.85056369197881    0.42744978833203   -2.33557030368954
C         0.96682489803689   -0.51921859225076   -1.46544311162688
N         0.05925157172448    0.29723500673394   -0.64433643746097
N         2.78127892583303    1.04324997376856   -1.36907339218812
H         4.10060804276092   -1.00230449657348   -2.00497417210745
H         4.45298218243556   -1.65446181590783   -3.64100019042843
H         2.87979877218372   -2.14040766111800   -2.82877086466271
H         2.41844786920422   -0.30537127013702   -4.33392260149742
H         5.44822980618017    2.77755413438746   -2.38984084138340
H         4.66671221799654    2.97607559978643   -0.78190988760557
H         5.19022551183489    5.02732277807120   -2.51248875516184
H         2.05552284681122    4.74290366062507   -2.98892963508222
H         0.86218371961405    2.85789704131484   -1.56537050387348
H        -0.91902894230898    3.19492508847740   -3.55877845448926
H         0.52234862935269    3.88226837896091   -4.36428785066819
H        -0.48947344097632    4.91661611918045   -1.87140424595846
H         1.45471280775370    1.50416955573246   -4.19484722614257
H         0.02249896542369    1.19794141503656   -3.19189012615581
H         1.66025031973740   -0.99275941895132   -0.77091906837324
H         0.45364568673110   -1.33411363720917   -1.99106072804042
H        -0.28276540780666   -0.29720827281153    0.10670158762018
H        -0.69825945512329    0.67643911140150   -1.21475416095076
H         2.40454787802031    1.71916876255433   -0.70766503638213
