35
 energy: -49.714602145425 gnorm: 0.134027643990 xtb: 6.4.1 (79825abcba525fcdf90b791dcacef51065a7a4e7)
C         3.70820293821536   -1.26855770062720   -2.56643542268999
C         3.02727503689635   -0.02117908130396   -3.11037312040292
N         3.94103269091464    1.14804730925535   -2.95597556852987
C         3.65667048158751    1.81109146384104   -1.87230633166328
C         4.08551372447756    3.22149673164995   -1.61931341522246
C         3.56216425369910    3.80319011246371   -2.93804779271751
N         4.39118726025084    4.51944830523614   -3.63039155309215
N         2.25607034853943    3.68337028035753   -3.38276318411204
C         1.16983019456357    3.00996855867427   -2.64484758476714
C        -0.10448716951777    3.75599540966885   -3.11833574763370
O         0.09518116060450    5.16719270424854   -3.03406999657829
C         0.91979508653278    1.50717641747132   -2.90052267496444
C         1.85921375172795    0.49128497178767   -2.18960156849424
C         0.97240085712746   -0.72248526392231   -1.77172448726832
N         0.04330382778259   -0.30915178225790   -0.70850479432410
N         2.68124784992069    1.14506328993279   -1.15210902507861
H         4.64103921663162   -1.39996890079765   -3.12752833605186
H         3.07819926089516   -2.14945603621276   -2.72847112277540
H         3.97338606459187   -1.26768298665970   -1.50717869836020
H         2.64637208986564   -0.12416105303127   -4.13556679832687
H         5.17175428558515    3.12710608910825   -1.69572680068322
H         3.66083551670387    3.68001162583647   -0.72411147596400
H         5.37369013790021    4.60063298352106   -3.34005604384874
H         2.29792552273219    3.71167694945352   -4.40420944932999
H         1.42197549681028    3.26175799658948   -1.60581692440068
H        -0.88802624139162    3.56358768132055   -2.37828616243288
H        -0.39929599404260    3.39432126604163   -4.11141122432709
H         1.03824815527397    5.40819662572869   -3.10761599704088
H         0.96856138722799    1.34760615306101   -3.98598542679602
H        -0.08657589689491    1.23528592388947   -2.55451996874762
H         1.68811294106918   -1.49251657234780   -1.48492951457296
H         0.21223081441703   -1.11242488631034   -2.46003349833438
H         0.45570332725734    0.16928144035633    0.08863060189685
H        -0.54822705137154   -1.09809096271535   -0.44268291242425
H         2.18973182648336    1.60779830474921   -0.39017609916936
