35
 energy: -49.722826538563 gnorm: 0.110170683221 xtb: 6.4.1 (79825abcba525fcdf90b791dcacef51065a7a4e7)
C         3.58031720080131   -1.32410352505832   -2.88793529496215
C         3.01933384301597    0.06176975779141   -3.17102071479596
N         3.99612458325511    1.15886132485810   -2.90996144554979
C         3.68338073441323    1.68886649332498   -1.76274122297163
C         4.07568420454372    3.10101702980385   -1.46427211502701
C         3.71592103793655    3.78047445809174   -2.79100881065477
N         4.51758793642076    4.53407690508963   -3.47588715119330
N         2.44694416071560    3.60424911771796   -3.31698613182794
C         1.21020887565216    3.01281103558102   -2.77054878969701
C         0.00457174724672    3.81057071198695   -3.33148589419747
O        -0.02313766890489    5.15568453064663   -2.85362926506736
C         0.93083143657253    1.51564832240545   -3.02885783649385
C         1.79664477066435    0.47002233703179   -2.26926239552522
C         0.92162360695662   -0.67660439320576   -1.67438288612268
N         0.19782408735024   -0.37025925286329   -0.43069125727520
N         2.54448945637722    1.14894534374971   -1.19253178404214
H         4.51720506409035   -1.26825972836042   -3.45485706089244
H         2.91327111282818   -2.17877227771780   -3.04199020453686
H         4.00688207027163   -1.29412750387965   -1.88320074346430
H         2.73599014066278    0.17388170690514   -4.22641716932508
H         5.15975318757822    3.08105526511192   -1.32620288899348
H         3.52754866664215    3.46333961572640   -0.59235252207416
H         5.45347186717586    4.62931908001283   -3.06206622321670
H         2.41258115843090    4.01564046162123   -4.25265804519662
H         1.21885473441059    3.22960603841913   -1.69375491480207
H        -0.94510746454151    3.34198855381969   -3.05369506147427
H        -0.05073580137494    3.94583822115216   -4.41894306494105
H         0.81833253147252    5.61210979424938   -3.04460345321549
H         0.95793899009929    1.31558639926908   -4.10835336913993
H        -0.12195901378283    1.42788092672183   -2.72826838450415
H         1.47425325784421   -1.58632090173877   -1.44101688489555
H         0.13796495916602   -0.87911112470120   -2.41502507433573
H         0.33484049406840   -0.95213818022538    0.39213311590624
H        -0.80297603863233   -0.22466262906526   -0.57280322599112
H         2.00865118986759    1.48741272100956   -0.39593234634944
