35
 energy: -49.719223740210 gnorm: 0.112613709528 xtb: 6.4.1 (79825abcba525fcdf90b791dcacef51065a7a4e7)
C         3.51539569544833   -1.49150041967649   -2.77566259486691
C         3.07078741985178   -0.09749491232606   -3.19346222494924
N         4.10437443539378    0.96663715631321   -3.03470833929691
C         3.81645364512418    1.59131226961823   -1.92939797416214
C         4.13644415982870    3.02749117917666   -1.66078842221576
C         3.55549366762753    3.87692881277651   -2.79757088299484
N         4.03353063987926    5.05693229259144   -3.03988725209476
N         2.44994231117551    3.47845571245113   -3.53036362444137
C         1.29194756854354    2.93203141953592   -2.79662277549823
C         0.02168423775474    3.72315534581169   -3.20305337563231
O         0.14097929836674    5.04195231841508   -2.66920958449315
C         0.96963167477330    1.44272068073261   -3.05027111827045
C         1.91692059079013    0.47203346275955   -2.28845640577858
C         1.03686966279177   -0.58797857213950   -1.55621234133180
N        -0.00701836529057    0.09523919500066   -0.77646030862379
N         2.75748350405393    1.05119366711163   -1.22188041477379
H         4.15266938862917   -1.45808789038478   -1.88401046946755
H         4.08967340014569   -1.88762575470269   -3.61971941182115
H         2.67276662993512   -2.15243407938371   -2.56237731296737
H         2.82547531486186   -0.03193720407763   -4.26221783516256
H         5.22560049277819    3.08785275565307   -1.59178062207771
H         3.77320644626924    3.33008254381770   -0.67667927963792
H         4.78450030294725    5.33828435438050   -2.39717180955468
H         2.14410431326140    4.27688073436051   -4.09151084366538
H         1.33629490057190    3.29290043455489   -1.76010613937699
H        -0.90138125925664    3.35012396932401   -2.74761373050785
H        -0.09276964914764    3.75273720285786   -4.29389916982359
H         0.43186461560832    5.68909141152781   -3.33963033772505
H         1.04449349347352    1.13121367550145   -4.10071353706760
H        -0.08365251650895    1.30440701444977   -2.77118942525869
H         1.59332654950235   -1.25982784933916   -0.90320573842860
H         0.51989291229607   -1.12135395682730   -2.36363195820198
H         0.32125275402966    0.20437918517643    0.17995125125362
H        -0.80987441569721   -0.53140951373535   -0.70077251249449
H         2.27075324623227    1.74325098885800   -0.65583819538787
