35
 energy: -49.718034018882 gnorm: 0.123817714181 xtb: 6.4.1 (79825abcba525fcdf90b791dcacef51065a7a4e7)
C         3.29504853140893   -1.57893177631397   -2.43510018957672
C         2.78342480369417   -0.27328199526110   -3.02586599738700
N         3.88392918045210    0.70145317472268   -3.28015609635310
C         3.81559939017381    1.61628963800946   -2.35644961643517
C         4.58822189621584    2.89699605133850   -2.35709489039800
C         3.73092022578958    4.01044332872731   -2.97076512894197
N         4.19319149140292    5.21217764056436   -3.11836155012538
N         2.58647090447563    3.56541770037277   -3.61123196741855
C         1.44227661364970    3.06177337105496   -2.82696874909722
C         0.24543257884368    3.93298749699603   -3.28868526419501
O        -0.91924593882259    3.62135350500069   -2.52392767885861
C         1.10733038200029    1.56164987756806   -2.98095595116556
C         1.88715205576911    0.58278318488564   -2.05702422301074
C         0.92328512063629   -0.24316145258552   -1.14979077347956
N         0.06857366358171    0.70543901301469   -0.41895053191994
N         2.91691104926628    1.35783820984462   -1.33699432957518
H         3.66362509800321   -1.44105705444700   -1.41166501786142
H         4.19370619889310   -1.93314281950168   -2.95094029044725
H         2.53192013074198   -2.35205797122870   -2.54581872651961
H         2.21922484836693   -0.38401999043220   -3.96188411725230
H         5.48512826438534    2.77087839876583   -2.96891220570273
H         4.94171228539776    3.13607615759503   -1.35217737136870
H         5.17045733594611    5.29557251498199   -2.81145061084367
H         2.23744834260426    4.14662541422591   -4.37692540321411
H         1.55329399291467    3.24721932455795   -1.75000782705853
H         0.02516171855324    3.88410032259045   -4.36000145604330
H         0.45756732086194    4.94540218605702   -2.92271438775417
H        -1.44665309545907    2.91956454235538   -2.95077800746516
H         1.29535560806284    1.25494093179170   -4.01857165066033
H         0.06176072651115    1.49662702608790   -2.65083324896261
H         1.54550951709894   -0.95980311545700   -0.61434247270109
H         0.21883368004311   -0.68836646554056   -1.86338826208810
H         0.72719338476054    0.95880528603234    0.31345791759653
H        -0.55518442719953    0.06549244477516    0.07540695286865
H         2.66218816331856    2.20945246480281   -0.84088659211811
