35
 energy: -49.715508633805 gnorm: 0.125066859719 xtb: 6.4.1 (79825abcba525fcdf90b791dcacef51065a7a4e7)
C         3.78865423040214   -1.39968144236565   -2.71816924633110
C         3.06723447551368   -0.12159287637238   -3.12007419700707
N         3.97645902940553    1.05358963757558   -2.98539393649455
C         3.67947202450650    1.74348465719750   -1.92206331883278
C         4.31979480730720    3.06755690503008   -1.65008107011570
C         3.64201217551427    3.88719239792213   -2.75467625663781
N         4.24092164252555    4.79510467836002   -3.45940850499255
N         2.35201673484048    3.66414606615263   -3.20653011749870
C         1.19371823582653    2.95356548680845   -2.63092019732889
C        -0.10002189955398    3.73118669004769   -2.98612936003584
O         0.02169249428417    5.12323688891674   -2.69316553308754
C         1.07345851102068    1.48423295786137   -3.09229970100982
C         1.85463464257513    0.41618755778505   -2.27437882618001
C         0.88188819887773   -0.66751524416662   -1.71433495912593
N        -0.10699393035631   -0.09094702616322   -0.79011464510154
N         2.62761077119084    1.14665000681430   -1.25042108895508
H         4.46169767636759   -1.61184911257536   -3.55738023445188
H         3.06015881392657   -2.17553248551631   -2.46030946662936
H         4.33119825607531   -1.24626380973704   -1.78304536388541
H         2.82615521728030   -0.09280701365795   -4.19141288515447
H         5.38490564787079    2.95079650151735   -1.86588895180906
H         4.27348399255110    3.46620866272482   -0.63474562640447
H         5.16085342649459    5.01049783709814   -3.05502147794234
H         2.05151527187443    3.93742081492907   -4.14510636310708
H         1.14120078700883    3.06993969859400   -1.53993035382004
H        -0.92536723064962    3.30208544609666   -2.40880380215467
H        -0.26639041851990    3.56022765481145   -4.05711668645548
H         0.80727127625982    5.35790557165619   -3.22294270201359
H         1.28273871123327    1.42931678623428   -4.16898731370038
H         0.01138985946153    1.29051633993226   -2.89004013196297
H         1.46476982123937   -1.43352568117594   -1.20353129590205
H         0.38458250090515   -1.30836016565791   -2.45304026134800
H        -0.43330363230542   -0.69993164331445   -0.04375263571825
H        -0.86735806591956    0.28916591419551   -1.35611430806237
H         2.18609361349761    1.68756419027330   -0.50965937135358
