35
 energy: -49.728273241257 gnorm: 0.101068282096 xtb: 6.4.1 (79825abcba525fcdf90b791dcacef51065a7a4e7)
C         3.59732713211951   -1.46810127931029   -2.99441430061412
C         3.05899381569127   -0.06567070793407   -3.23704606010463
N         4.06603729628937    1.01462982022560   -3.02563131514729
C         3.70861131310058    1.65623968254901   -1.95073044677310
C         4.32110673881315    2.98284213268140   -1.63115222596826
C         3.64299403748170    3.87606662390841   -2.67692245910518
N         4.15618919471413    4.94060309636051   -3.20893529045531
N         2.41143188135701    3.54413476388949   -3.21644610203678
C         1.23031237767538    2.93894546998434   -2.57099305686537
C        -0.04747406131838    3.65132413690712   -3.08520147491849
O        -0.08493361806993    5.07120802764251   -2.94038270767951
C         1.03142686204510    1.45906021394901   -2.96679065675051
C         1.92863623986927    0.40887535754648   -2.25119384062362
C         0.97143201039021   -0.60290430358321   -1.54808748676746
N        -0.11647242995005    0.10390199882307   -0.85426420023373
N         2.69879042611797    1.09129905352950   -1.19255443813186
H         4.41020154794748   -1.74250805041146   -3.67721279589291
H         2.73384835279895   -2.14147114233695   -3.00534618176227
H         4.07853183753641   -1.51997281159711   -2.01558896318277
H         2.62139790728456   -0.18180974166274   -4.23791366628179
H         5.39835423072742    3.08355839571568   -1.78626900207944
H         4.10215754074285    3.22271952958925   -0.58880195671262
H         5.07128450834074    5.23114595142395   -2.84235244649246
H         2.19714210462368    4.25528283658607   -3.91947804895092
H         1.33991294748528    3.10366407591619   -1.49052307465499
H        -0.92813383083780    3.32330064943760   -2.52353737687767
H        -0.12312153853921    3.35095288553082   -4.13780486840010
H         0.70270176474670    5.49563311859777   -3.33071731517755
H         1.25610435640267    1.44491880113027   -4.04168147048336
H        -0.00556752513345    1.11415015375253   -2.85676989949023
H         1.51546605006609   -1.28634382802068   -0.89664237414610
H         0.60995921088088   -1.16062517607787   -2.42099387347231
H         0.12616549977797    0.32194402448630    0.10905352898851
H        -1.08609678047066   -0.20808554197730   -0.92834168793603
H         2.17302009894968    1.61824068519139   -0.49818309212428
