35
 energy: -49.723661619561 gnorm: 0.112598658728 xtb: 6.4.1 (79825abcba525fcdf90b791dcacef51065a7a4e7)
C         3.58078288281466   -1.51365339128698   -2.44309627604727
C         3.04004434374004   -0.19171388219072   -2.96803645772103
N         4.03434505390306    0.91678823127323   -3.06007530352368
C         3.81030741503294    1.69683809115809   -2.04215696559908
C         4.32149371029035    3.10245227651687   -2.05176002789238
C         3.63378609603117    3.77270202014642   -3.24722883433386
N         4.27959931301164    4.41067864352573   -4.17219148340495
N         2.25833385799121    3.76182537860455   -3.40854421055705
C         1.28683543483367    2.97902467055075   -2.62030514329500
C        -0.05653550069615    3.72904244727071   -2.81385019105945
O        -0.12331362838788    4.84305416693042   -1.92336463304345
C         1.22300916553673    1.50853236030256   -3.08918690312681
C         1.91573845270331    0.50871396756103   -2.11942353135652
C         0.88777180200171   -0.46998686109247   -1.47156106307021
N        -0.30705611941319    0.21831000222310   -0.95859359000085
N         2.76440161458714    1.31597394353447   -1.22072498030042
H         4.08887064013581   -1.41996902136331   -1.47596249794777
H         4.36306579588890   -1.79586633534092   -3.15550864215241
H         2.79548840872633   -2.27191343413604   -2.46959079108734
H         2.63113703470693   -0.39412659229300   -3.96730535197383
H         5.36783163839624    3.36474586192476   -2.22795914494357
H         4.06414801406023    3.55079724308461   -1.09012913947798
H         5.28498130553719    4.55449719060708   -4.01496288667371
H         1.89480294307193    4.24545607196457   -4.23307571707907
H         1.55560651413650    3.02868834222281   -1.55641816407109
H        -0.95722811731283    3.20112756917378   -2.48417416952613
H        -0.24851520683860    4.13721826178158   -3.81407797453580
H         0.59095295876830    5.44778293810690   -2.20084187025702
H         1.71869199535766    1.46730821546980   -4.06830349844434
H         0.14959766636272    1.33693256359173   -3.24655949001039
H         1.38030914918012   -0.98377276798576   -0.64640995310965
H         0.62013733581776   -1.11462583771765   -2.31802020936818
H        -0.98305529967402   -0.53422498266617   -0.85317658500771
H        -0.06230144395212    0.49565696049431   -0.00666454893830
H         2.24608331457353    1.92512353135132   -0.59101363217435
