35
 energy: -49.723214725643 gnorm: 0.104282046748 xtb: 6.4.1 (79825abcba525fcdf90b791dcacef51065a7a4e7)
C         3.58320483823612   -1.54627387264714   -2.81821572439592
C         3.05969372807685   -0.15510062158890   -3.14388049094486
N         4.10673557942151    0.90132008591737   -3.02743028887385
C         3.76475130084124    1.64386321653844   -2.01426452458166
C         4.32611795379836    3.01330081184640   -1.79824815761034
C         3.66000631481389    4.01383460056026   -2.75037714214242
N         4.21535087598336    5.09158591563159   -3.20829560206234
N         2.44943925220191    3.57760964044224   -3.26247576925675
C         1.27481421265504    2.92484448411607   -2.65250803853203
C        -0.03579799933317    3.65031388825549   -3.05328429681060
O        -0.06991690584502    5.03348902323199   -2.70099407055688
C         1.01423379283087    1.44287161261102   -3.00197304144296
C         1.88733848816127    0.39659324635160   -2.25167878906842
C         0.96514247430309   -0.57365522714217   -1.45013716952637
N        -0.31412882587516    0.05137918385747   -1.07959851633584
N         2.71351710106330    1.13274599070318   -1.27440452292190
H         4.42584306574448   -1.71470831672228   -3.49929452918754
H         2.83335263937393   -2.32371704978533   -2.99834308264866
H         3.83715281075898   -1.45354272720477   -1.76026533214192
H         2.88567896893199   -0.11102738944583   -4.22761977387882
H         5.40302077896728    3.09398078240679   -1.96688439877685
H         4.13838520087748    3.20207672062342   -0.73943086039989
H         5.11855096130618    5.32913816908388   -2.77934794518958
H         2.11372891831889    4.16458476160128   -4.02972043466854
H         1.39993370316095    3.10454626269472   -1.57611950746868
H        -0.88560210406290    3.13348841043690   -2.59573429459616
H        -0.21470608622364    3.51696363241716   -4.12758822778303
H         0.84452352687343    5.37428548818348   -2.72387911539023
H         1.10482673910949    1.31958904036069   -4.08947685055405
H        -0.04027891753386    1.20587401737027   -2.80637151034563
H         1.59847518972377   -1.06323049880218   -0.71077996086259
H         0.69794331742044   -1.42741563551480   -2.08525801240326
H        -0.29908109732244    0.79799011386559   -0.38913329724168
H        -1.15091977768483   -0.53409051831918   -1.08069932064131
H         2.31166310620372    1.72875257161221   -0.55361120671497
