35
 energy: -49.721081326801 gnorm: 0.093952148072 xtb: 6.4.1 (79825abcba525fcdf90b791dcacef51065a7a4e7)
C         3.48501153496399   -1.43199579028176   -2.70643135917701
C         2.83493462785381   -0.11416199397944   -3.10165097364935
N         3.93412718981999    0.89231756734299   -3.16989035836293
C         3.85631421858433    1.67711158907257   -2.13409505147846
C         4.64525285740068    2.94581972582438   -2.06260770359201
C         3.82953333717812    3.83190541866056   -3.01169989975027
N         4.36520246634151    4.65516145701338   -3.85724876963778
N         2.50360327116550    3.58481169436270   -3.32612631570115
C         1.25327749576628    3.03495745809357   -2.76733055427735
C         0.10744048366743    3.89075890666251   -3.36674130447546
O        -1.13614881511433    3.59032230783358   -2.73296732033090
C         0.87961241172027    1.54071194180001   -2.88512812122763
C         1.83497643998456    0.58802334588833   -2.11077954606613
C         1.00518467120364   -0.27768650727283   -1.11263695219122
N         0.48847150831066    0.52424354227196    0.00737094073530
N         2.75405981863170    1.44151231717310   -1.33206311945688
H         3.73975130578388   -1.41593804771416   -1.64006956296310
H         4.36210787751604   -1.44126153537965   -3.36199084340993
H         2.84633753258909   -2.28984207041119   -2.92675599211455
H         2.49742115578321   -0.20594039554871   -4.14298463840658
H         5.65851724852028    2.86264814704249   -2.46391170743182
H         4.74113136464264    3.33850876036357   -1.04842003147389
H         5.36886043580027    4.81157609272427   -3.70103510531276
H         2.52438784145480    3.83560357689855   -4.31737655220000
H         1.28230138289766    3.14300266144906   -1.67460747300415
H        -0.06404742256446    3.69367486637184   -4.42993337020244
H         0.40869074524736    4.92704557996801   -3.16855567242712
H        -1.38253421778178    4.26386954766539   -2.07077731079900
H         0.84666333815977    1.23307590960114   -3.93885704223872
H        -0.13016585974613    1.52663537377914   -2.45318533657102
H         1.57885904388228   -1.09992587512663   -0.68571366038450
H         0.14052998209819   -0.65670287914419   -1.67156411355287
H         0.00316909223881    1.36050635789281   -0.30813279408878
H        -0.11132683901925   -0.05178074057740    0.60018883301074
H         2.41884665451076    2.06339048462939   -0.59915578522761
