35
 energy: -49.722965729128 gnorm: 0.104247640519 xtb: 6.4.1 (79825abcba525fcdf90b791dcacef51065a7a4e7)
C         3.57515539848796   -1.43405186369100   -2.58245305595156
C         2.93362395465237   -0.16194962444392   -3.11694136339706
N         3.95921853071763    0.92098756738881   -3.15278561952950
C         3.72185371020981    1.65468777892422   -2.10389556234772
C         4.38524202138349    2.97767294936237   -1.88760615867975
C         3.65000267224978    3.98053929169825   -2.78482651781995
N         4.14812948182284    5.12568309126550   -3.13146777676840
N         2.41374046950722    3.66487939722346   -3.32336568217359
C         1.24785173733765    2.97747196305243   -2.73507880310995
C        -0.01796292423200    3.71606195175427   -3.24186268967235
O         0.01743344520485    5.04085287439180   -2.71071104498373
C         1.04227968362572    1.48728199607741   -3.08628461227958
C         1.81099910830492    0.45973690006260   -2.20698193681510
C         0.95418346236337   -0.68795501510938   -1.58813885952432
N        -0.11158176313577   -0.17823072049440   -0.71131071703187
N         2.72098426028971    1.16588832210787   -1.28349175317118
H         4.54682762111305   -1.63816426478206   -3.04771524191758
H         2.97629623458897   -2.33849583403891   -2.73242267349859
H         3.81022177542263   -1.40962404589245   -1.51638797961642
H         2.45959252331854   -0.35912751743820   -4.08808991388787
H         5.43167025169816    2.98497960063249   -2.20320353596298
H         4.33114098882556    3.16547387532949   -0.81346562794464
H         5.01105532526267    5.27209269374873   -2.59283916046393
H         2.10793416096456    4.52973649878301   -3.77548326162159
H         1.28289420893696    3.15042848784676   -1.65091186481856
H        -0.91540298800743    3.29495584121720   -2.77721381980757
H        -0.16479761220686    3.73767000065798   -4.32901124980301
H         0.94223753731242    5.25241137481708   -2.48082487050646
H         1.39218694937662    1.35957286909782   -4.11939907382314
H        -0.01608755540332    1.19372321759787   -3.09662365572832
H         1.55070320257200   -1.11294214773555   -0.78129717809755
H         0.67165759564767   -1.43662909294332   -2.33870328416434
H        -0.70773722224149   -0.92332841396355   -0.35942347527178
H        -0.63394473237238    0.56643773740864   -1.17563915572018
H         2.42755816422424    1.74188253590986   -0.49711699356964
