35
 energy: -49.722099771694 gnorm: 0.101876961533 xtb: 6.4.1 (79825abcba525fcdf90b791dcacef51065a7a4e7)
C         3.43132825529278   -1.57013409221528   -2.61034651969936
C         2.97041301742345   -0.17461131212909   -3.00475460364688
N         4.08825682358571    0.80766054282390   -3.11175563661631
C         3.91005568933426    1.64598090660194   -2.13181087957858
C         4.55630853513124    2.98967493972342   -2.01349557462613
C         3.87370437990140    3.85100888880943   -3.08283066985637
N         4.40971354173710    4.65549525359121   -3.94604596956978
N         2.49692181583423    3.99117621597703   -3.02960746503022
C         1.39383869449497    3.22580664949181   -2.41697053851709
C         0.06565205646004    3.94836609039388   -2.76115061496573
O        -1.03205335187567    3.67637881592033   -1.88965092750258
C         1.35705542538929    1.78662436740555   -2.97703559499741
C         1.96586646920648    0.64482106950087   -2.11356236610999
C         0.84856895582542   -0.16355285599097   -1.38385393477965
N        -0.47915928591741    0.43089785108634   -1.60355381686416
N         2.97042406571065    1.23185125147095   -1.20481788032826
H         4.17619488962716   -1.57195216754994   -1.80570494320458
H         3.89019501951784   -2.10335588322497   -3.44954726482861
H         2.55966600493372   -2.18378580082839   -2.37373679088645
H         2.59279986535994   -0.20331854656910   -4.03591832572146
H         5.59298470647975    2.90062473324191   -2.34821891662131
H         4.61822705723211    3.44405363961637   -1.02269788262900
H         5.40818605363396    4.46239080248111   -4.09423799410671
H         2.16855510680207    4.37615921510702   -3.91835320851614
H         1.48140326036995    3.29284189538503   -1.32408509315784
H        -0.17384614560620    3.62833195941827   -3.78038874133648
H         0.21479697413377    5.03266643551962   -2.83840266077417
H        -1.06717151979896    2.71556804088864   -1.72090073350030
H         1.91880110829625    1.78063628756341   -3.92068602910848
H         0.37411892630921    1.44988001260349   -3.33321523648680
H         1.12429719893861   -0.08441479691361   -0.33259066484168
H         0.82295469400634   -1.23675527245143   -1.61026324887613
H        -0.93063440596496    0.43773152841138   -0.69222508607914
H        -1.06672434458269   -0.05720553239001   -2.28143099636543
H         2.64136135232804    1.91022351581950   -0.52087176992357
