35
 energy: -49.716688738249 gnorm: 0.112675972082 xtb: 6.4.1 (79825abcba525fcdf90b791dcacef51065a7a4e7)
C         3.65325148533002   -1.47382903387828   -2.64064489456029
C         2.99613772398232   -0.17728567581323   -3.09082403737544
N         3.99740748594553    0.91935778061972   -2.94690044722048
C         3.66684150213729    1.62163506915245   -1.90173961951188
C         4.20111613980234    3.00133344913340   -1.68233608381586
C         3.66979826020008    3.93784044035501   -2.77411360715532
N         4.36538059165961    4.96005061442558   -3.16256745190160
N         2.48902548597854    3.62866358875488   -3.42847984758365
C         1.34055286102695    2.99318343101386   -2.75388177698915
C        -0.00240239486821    3.75095259565803   -2.91786008303603
O         0.07272904721081    5.15357286326510   -3.17370690091689
C         1.00396778397578    1.50492857754980   -2.99487863238233
C         1.81420968272536    0.41410891484811   -2.23753314219601
C         0.89655934957163   -0.71784084812566   -1.67994534277210
N        -0.34759464033254   -0.11644234346793   -1.17506648310697
N         2.60390580945952    1.09329487924854   -1.19128107645000
H         4.39840343855153   -1.63651965712494   -3.42839994055659
H         3.05410821580428   -2.38180948511045   -2.51518208961632
H         4.24536663375745   -1.27947575342339   -1.74399885557038
H         2.75258640109452   -0.21356723426978   -4.16137567928654
H         5.28199955813584    3.16256926920531   -1.70134088116912
H         3.83966853792998    3.55204258120574   -0.81167593790262
H         5.17967814670176    5.14326577395440   -2.56294318330496
H         2.23200549372210    4.37532671112489   -4.07835714516895
H         1.58919509155154    3.22072164456624   -1.70843292855052
H        -0.66068308758701    3.45734524209774   -2.09379161597265
H        -0.56301761515603    3.32607536152986   -3.75994632372045
H         0.90051968221478    5.41845057967504   -2.72933124879199
H         1.11636046260168    1.37899811448147   -4.08004203402219
H        -0.06242658140477    1.39526573614417   -2.75570927624571
H         1.55418388769514   -1.30311914705068   -1.03774393967487
H         0.61803333228649   -1.43372250166477   -2.46328270303682
H        -0.14536593117405    0.54129681136893   -0.42614773489635
H        -0.99980790118030   -0.82988807186469   -0.84550899184066
H         2.22010273505792    1.78099979058150   -0.54629221192349
