35
 energy: -49.720970443563 gnorm: 0.107772281756 xtb: 6.4.1 (79825abcba525fcdf90b791dcacef51065a7a4e7)
C         3.56687616318985   -1.40429785436823   -2.85517115602853
C         2.99610036924445   -0.02267428954314   -3.13945228857306
N         4.04667093162996    0.99282889399501   -2.83789503033187
C         3.65991941861924    1.64022944583990   -1.77670503143547
C         4.11666226569915    3.02067919603915   -1.42613492157671
C         3.60059999372796    3.81632080508403   -2.63110644014377
N         4.33774514703065    4.68113527754856   -3.25429001147702
N         2.40680471738860    3.48233950530203   -3.24861690238421
C         1.12102979017486    2.96619478922609   -2.74039997375184
C         0.09812753264055    3.90173051964990   -3.43543644807945
O         0.09230383284963    5.23587025968865   -2.92702402681442
C         0.94428669822670    1.47821626003252   -3.11583746544588
C         1.78556835250283    0.48015085909339   -2.26963281063956
C         0.96784069288412   -0.66257506738814   -1.59155060214694
N        -0.06317109189294   -0.06744038574538   -0.72706729732494
N         2.54360070586266    1.09929722318792   -1.16437190301557
H         4.31181121726478   -1.61196236894022   -3.63249020125750
H         2.77793035541740   -2.13404411750962   -3.06535437701297
H         4.06842222752759   -1.41854082660271   -1.88532768988431
H         2.74035008531869   -0.02657130159859   -4.20776451947664
H         5.18410275823244    2.96497172710826   -1.65446501642266
H         3.92664933257555    3.52977431326526   -0.47919710245567
H         5.22658531937641    4.82224076528601   -2.75805422272563
H         2.32467583451549    3.84705945407012   -4.20053066031205
H         0.94979785539471    3.14818881078962   -1.67076560704096
H        -0.89118954340769    3.44166037197522   -3.34480104497902
H         0.28920878013581    3.80752668008762   -4.51178812120775
H         0.87560629763611    5.71828238062148   -3.25349462789391
H         1.28054874079521    1.25468700780045   -4.13712719910701
H        -0.08015922176693    1.12162154220751   -2.94328127587254
H         1.57846772406289   -1.27737763961963   -0.93079665148175
H         0.47463484282254   -1.36981022538576   -2.26996575353511
H         0.47280287949991    0.50396046523246   -0.07850773206725
H        -0.49014432971934   -0.82622830146653   -0.19327910003901
H         2.02999057721279    1.81100438409571   -0.64868687952563
