35
 energy: -49.725287975032 gnorm: 0.110985806724 xtb: 6.4.1 (79825abcba525fcdf90b791dcacef51065a7a4e7)
C         3.62580009728200   -1.31289975849797   -2.35671229192789
C         2.86263225167969   -0.11928307096298   -2.91199462562610
N         3.87912993730043    0.95210020809879   -3.12354207921188
C         3.82621649361938    1.78072098137866   -2.12083763232167
C         4.35048660475316    3.17979461220823   -2.19075741699851
C         3.60150212336139    3.66008945874317   -3.43962141813048
N         4.16718196838136    3.95763822088206   -4.56705915466722
N         2.23162492632747    3.85238441178359   -3.37277124884765
C         1.26574667515688    3.12189086500022   -2.52934649659989
C        -0.08170070647302    3.88143350989461   -2.63940247342489
O        -0.13885226162870    5.21200568188228   -2.12485672055482
C         1.01017870543559    1.61635840535586   -2.76243124423885
C         1.89196968530757    0.63903373427663   -1.93343620047847
C         1.09356921341012   -0.25166037025702   -0.93167913987671
N        -0.22910783463621   -0.57160806787384   -1.49083999392323
N         2.92509311237676    1.35670477616934   -1.16067415404069
H         4.16292607927994   -1.07297931171623   -1.43139529991116
H         4.46121355924080   -1.48166286580968   -3.04427715439894
H         2.98048949997448   -2.16554988971124   -2.13555703587587
H         2.37849157985497   -0.29737182348503   -3.88184338449827
H         5.41704083977201    3.09786312370302   -2.41529345991985
H         4.07352750896290    3.72107411678440   -1.28395856792926
H         5.18323044069887    3.80330497008113   -4.57199010586748
H         1.95695908016594    4.08467534071384   -4.33011402161238
H         1.63380700719940    3.30579380979598   -1.51088139230480
H        -0.91290590784031    3.31500259413086   -2.20710453252913
H        -0.38772561357346    3.87316485068513   -3.69306262089026
H         0.80325102105026    5.45208591921125   -2.03727736084842
H         1.10070822694862    1.43909798691719   -3.84245593395535
H        -0.02590519435373    1.41676221177104   -2.45728149408616
H         0.87142619863662    0.24770770707363    0.01104422835271
H         1.68263735015285   -1.17627969295816   -0.88974416838021
H        -0.05923933535937   -0.96836829857609   -2.41177568684592
H        -0.56658386035023   -1.37721679746999   -0.96159563440591
H         2.59548363901802    2.09357136940936   -0.54048168313539
