35
 energy: -49.720767708510 gnorm: 0.120052023586 xtb: 6.4.1 (79825abcba525fcdf90b791dcacef51065a7a4e7)
C         3.81628448705165   -1.23734773930923   -2.51937050648864
C         3.03736982206841   -0.09637259817476   -3.15729850395379
N         4.02483580490385    1.02132722756323   -3.11805503493675
C         3.71921825868872    1.65143058216402   -2.02060521043259
C         4.17721219867479    3.04384703630851   -1.72299315948216
C         3.59731087571478    3.92824223402908   -2.83334526114199
N         4.32186271014971    4.69676727750429   -3.58437035576972
N         2.30338392864530    3.58929476893508   -3.19234037862367
C         1.11970747559993    2.95334912575306   -2.58210260524151
C        -0.05591327138931    3.81962787221480   -3.10374311018568
O         0.11512784989857    5.22773505035040   -2.94118524073867
C         0.85578037559195    1.47049084748400   -2.92524300123368
C         1.83718423113865    0.44161378571652   -2.29420405534498
C         1.03601579464620   -0.69996361375588   -1.59475659499852
N        -0.09855099278454   -0.18348330600060   -0.81340630770787
N         2.68152642591297    1.10920667012719   -1.28377693760481
H         4.68708298727943   -1.56688468650575   -3.09850180033613
H         3.09159032634845   -2.05737408478850   -2.48041858232322
H         4.11791009325546   -0.97219986456568   -1.50395617300862
H         2.72524230794345   -0.24917517945460   -4.19938401430732
H         5.25638390668818    3.17385243585855   -1.83768480438455
H         3.81730417451696    3.35164857499267   -0.73927651751434
H         5.28833875325572    4.75767570727335   -3.24026021943427
H         2.06645775503047    3.95158199145733   -4.11890368058920
H         1.11489873490577    3.05831160196759   -1.48870440062124
H        -0.90252191729693    3.67337123376678   -2.42514868647195
H        -0.48148126697100    3.58452507822083   -4.08737814361838
H         0.67754638077138    5.55217614760721   -3.67008209919064
H         0.80804662724382    1.29758266594760   -4.00870709976443
H        -0.13500542597789    1.31007717820478   -2.47910868540686
H         1.57042021827397   -1.43303907964124   -0.99105498856223
H         0.76515442591044   -1.37698802804061   -2.41448385192395
H         0.26074012810528    0.19715178318309    0.05861625964355
H        -0.76258140357695   -0.92149896595339   -0.57384090059894
H         2.27817388992911    1.66778829920923   -0.53441268308744
