35
 energy: -49.714916799956 gnorm: 0.111373157120 xtb: 6.4.1 (79825abcba525fcdf90b791dcacef51065a7a4e7)
C         3.73887454182200   -1.32390352996974   -2.70527630292113
C         3.16350474975792    0.02155794018236   -3.12261006467591
N         4.19491314096428    1.05629331430132   -2.82028336558431
C         3.72807830757953    1.71528550966940   -1.79919425968026
C         4.01756342577180    3.15583979096874   -1.51962906148350
C         3.59205223844021    3.76624998489362   -2.86039819321981
N         4.41862546844798    4.25603557923315   -3.73018645138764
N         2.31040293081341    3.65365635508964   -3.37294830446019
C         1.13476126890308    3.03191194786515   -2.73325495653534
C        -0.18883329300513    3.72818003581097   -3.14305982418066
O        -0.25276155335709    5.07985551718915   -2.68772200371726
C         0.96792458301921    1.52942947873160   -3.05103395000893
C         1.88732320815025    0.49828670389012   -2.33590989718903
C         0.99670862247961   -0.57361524853235   -1.63439124979269
N         0.14304479799546    0.08852097574272   -0.63572430475357
N         2.64289783017864    1.08852820111176   -1.21328845127715
H         4.50880137060399   -1.55464419965377   -3.45109739735984
H         3.02892237200457   -2.15373755266044   -2.78580882632566
H         4.25731098439810   -1.21709826023032   -1.75020355526068
H         2.86101291473004    0.06190891788696   -4.17787538792975
H         5.09563788032244    3.30771379953576   -1.42289793203018
H         3.46265074486121    3.63918514355957   -0.71314087267314
H         5.37285186055025    4.24028394647322   -3.34887102750933
H         2.48352841087386    3.41695763378225   -4.35269668959030
H         1.28769729012016    3.30598446781555   -1.68061317642526
H        -1.00796286879018    3.22829865396982   -2.61601813520693
H        -0.29258455498793    3.72272673488658   -4.23536256069856
H         0.40879619680933    5.65256060331155   -3.12040836581134
H         1.12950864001477    1.60030913854639   -4.13497900166805
H        -0.06063764871214    1.17896100326393   -2.89085763941779
H         1.50333463264150   -1.43064150272659   -1.19135690015668
H         0.45286245645195   -1.03699106673149   -2.46697452413647
H         0.44208610684962   -0.17094331993306    0.30110498195086
H        -0.82830371524408   -0.20318903376036   -0.75565103546256
H         2.24691153770970    1.49420706036279   -0.36778682455112
