35
 energy: -49.717279110471 gnorm: 0.128145174961 xtb: 6.4.1 (79825abcba525fcdf90b791dcacef51065a7a4e7)
C         3.24811608251748   -1.43997450895682   -2.60886672144401
C         2.78208200109448   -0.05956625540823   -3.04792220755872
N         3.87455145710044    0.93465975270798   -3.25746246178254
C         3.81890162867233    1.68047804798606   -2.19187033626344
C         4.39815204743010    3.05874357508724   -2.23668107275939
C         3.56625922590457    3.83000411092743   -3.26839503905829
N         3.87648117864195    4.99616483276311   -3.74112785108910
N         2.30493704258342    3.29696221518961   -3.47562083906637
C         1.22877737040926    3.03753899745386   -2.49966647206760
C         0.03157345533186    3.98587461567313   -2.76798374409707
O         0.43865928053164    5.35415206667995   -2.79130538659572
C         0.73463759574693    1.57582340185182   -2.42560616711122
C         1.83854902752133    0.58145037369424   -1.96457092525790
C         1.27871333523537   -0.37304223688718   -0.86465074066190
N        -0.00506603527816   -0.92438062562526   -1.32556123504918
N         2.93007423342746    1.24572875074976   -1.22506845264155
H         3.64522486705929   -1.47429459371131   -1.58739502788883
H         4.13864176392763   -1.65909696367403   -3.20727414246622
H         2.45712048076718   -2.17431969064222   -2.77442871761128
H         2.28543383462523   -0.10729801133632   -4.02658286823586
H         5.44711073395719    3.25105478827627   -2.47619974313969
H         4.23272842162301    3.45505418115390   -1.23291469935343
H         4.83902326283189    5.26497949476663   -3.50144268726370
H         2.04013686163976    3.81927514265203   -4.31405728714260
H         1.72829055656657    3.32786154732931   -1.56545060854761
H        -0.82829704198952    3.94196887300787   -2.09172743355385
H        -0.32364612132108    3.68770454603724   -3.76238456406043
H         1.06494983563613    5.48240465748877   -3.52899005723778
H         0.46341477713691    1.30637084064531   -3.45512241319559
H        -0.08779369401562    1.56644924322835   -1.69763380366999
H         1.10571590753381    0.18262301242608    0.05662629719491
H         2.06927680689515   -1.10082572387679   -0.64324319878367
H         0.07328691128355   -1.31762201896708   -2.26023687946923
H        -0.31446565670148   -1.60981016655989   -0.63458127562781
H         2.54132785623389    1.84822338099329   -0.50248284790226
