35
 energy: -49.719374555026 gnorm: 0.118765855007 xtb: 6.4.1 (79825abcba525fcdf90b791dcacef51065a7a4e7)
C         3.60505263864047   -1.40439714952082   -2.14851387877166
C         2.92201234244804   -0.27586550633550   -2.90703661526078
N         3.91372156560349    0.77828866591245   -3.26918826948289
C         3.80559292227806    1.61437542988645   -2.27717236624335
C         4.46366063263054    2.95748629960130   -2.26472116353245
C         3.69489210507341    3.79978473678536   -3.28983115056217
N         4.23637725907018    4.89674630462433   -3.71774931180983
N         2.39160198500427    3.48402999824465   -3.63587109443991
C         1.25602565895063    3.04957209901115   -2.79943836159432
C        -0.01982681638942    3.85587950369415   -3.15538871146437
O        -0.59862574086132    4.49786977993099   -2.01904094720159
C         1.03972381116026    1.53378996161268   -3.00410778266110
C         1.86724164215325    0.57158454656363   -2.10448192649970
C         1.03543858766155   -0.44273122074669   -1.25975488075309
N        -0.16215434168683    0.22142405663405   -0.72200872939481
N         2.86249521636148    1.31791976854734   -1.30949072097210
H         4.19744029122100   -1.08278690418041   -1.28368938733491
H         4.24719569059875   -1.86637085196626   -2.90572896411276
H         2.91106335257755   -2.17259690800378   -1.80124500447587
H         2.53249456611121   -0.60165166576525   -3.88112783736030
H         5.42915094667115    2.84985413821757   -2.76563126025084
H         4.54366357579655    3.39731649894090   -1.26866749093150
H         5.26118290180115    4.97337234201737   -3.72771954987109
H         2.21748202585425    4.00152427533079   -4.50061817360481
H         1.55541150927235    3.29889172345523   -1.77241950747814
H        -0.79157495205784    3.24103145185871   -3.62972432708548
H         0.30339728855661    4.60927424412212   -3.88466360746647
H         0.02071292744986    5.21195972215163   -1.77539688564644
H         1.30996998381003    1.25817314184243   -4.03224813772756
H        -0.01384016719289    1.32861106562188   -2.77102101577139
H         1.75094979136472   -0.78206154564207   -0.51119491875641
H         0.67493021054845   -1.29313907604974   -1.85180293526778
H        -0.98701540404772   -0.35207652021874   -0.56358570987668
H        -0.07017303157978    0.86794644279807    0.06319399969586
H         2.48571152612183    2.05926078832056   -0.72237826711711
