35
 energy: -49.719219216678 gnorm: 0.118381281741 xtb: 6.4.1 (79825abcba525fcdf90b791dcacef51065a7a4e7)
C         3.70723522338964   -1.42996863691982   -2.49677935547537
C         3.06870539326050   -0.17411409799821   -3.07175194400628
N         4.03140037931807    0.96564964432429   -3.06550857864356
C         3.66000970242249    1.69845799390311   -2.05561288859089
C         4.16302424531279    3.09509861631084   -1.87251110724272
C         3.60019186186424    3.99117709216196   -2.98227921717185
N         4.22757165433590    4.96380647028761   -3.56540141794390
N         2.32897139283981    3.77262186209706   -3.48650336097426
C         1.34547204988352    3.01221085986542   -2.69126054907700
C         0.04637196468763    3.82716982002174   -2.92107070004896
O         0.13597665128491    4.96845480316255   -2.06790860921298
C         1.08691877578049    1.51450850762934   -2.96750208491649
C         1.87107832873586    0.39476118023040   -2.22506596277039
C         0.91894386963085   -0.70567079413609   -1.66222851437320
N        -0.44240033329529   -0.23611672299607   -1.36095968989187
N         2.68859841659667    1.13787263125946   -1.24577886211917
H         3.90096108609331   -1.22823436434234   -1.43656651963467
H         4.66792697597287   -1.65266953679216   -2.97282320381912
H         3.05923409871983   -2.30777221522603   -2.54040372086731
H         2.83218345818156   -0.44699936743179   -4.10920335081313
H         5.25585599250739    3.09182220009982   -1.85314173079322
H         3.75498308656164    3.53474833328240   -0.96026961330629
H         5.18353562362562    5.05954608307564   -3.20048446297259
H         2.17592207518060    4.02773361579096   -4.46497128923673
H         1.54853340861639    3.11595843435597   -1.61675488814133
H        -0.88922061571577    3.37757788922351   -2.57298850662363
H         0.04041892846029    4.08125163366481   -3.98846300314726
H         0.87148880861706    5.56856900858797   -2.29539941755572
H         1.16470739322823    1.22892445353521   -4.02507519482953
H         0.06382442621849    1.35202874366138   -2.60239503236247
H         1.31493936921543   -0.97831062035008   -0.68432337953528
H         0.99703233398843   -1.46536510630818   -2.44991338491069
H        -0.41911336402960    0.46634612849505   -0.62584051808152
H        -1.01055871950974   -0.99530482430095   -0.98171760474938
H         2.16166067801543    1.67322315418514   -0.55876363694846
