35
 energy: -49.723211738428 gnorm: 0.097211842045 xtb: 6.4.1 (79825abcba525fcdf90b791dcacef51065a7a4e7)
C         3.38024192421189   -1.42216899512184   -2.98250973648024
C         2.77890325972382   -0.05547421609463   -3.27580415189435
N         3.91901795617669    0.90558988726883   -3.22705731677488
C         3.87264878550523    1.52353471842227   -2.08214575279600
C         4.52792450885657    2.85545266050338   -1.89839802967393
C         3.80379934892391    3.87941394835479   -2.78070648301357
N         4.32360478364651    5.03024220364902   -3.07232512092250
N         2.64412536286856    3.43507530783832   -3.39367405538050
C         1.35492025420679    3.11930219193296   -2.74858144073833
C         0.27661673847042    4.00991978929058   -3.41842742877730
O        -0.78166641744515    4.15618882476175   -2.47128008503717
C         0.91329790199406    1.64020867013578   -2.80794086761354
C         1.80466782923799    0.52696677871505   -2.18656836960729
C         0.94796074698206   -0.49450459077862   -1.37604648139875
N         0.17362214071509    0.31890765236000   -0.42564540014290
N         2.81191851193768    1.12546434851860   -1.28834588625861
H         4.14365068508596   -1.38149604056294   -2.19648782193534
H         3.93992010122210   -1.68230698604791   -3.88707075890070
H         2.65381819567876   -2.19227659466666   -2.71494570605964
H         2.23340337164753   -0.05360719694708   -4.22929289952299
H         5.57007979130514    2.83830197060169   -2.22746542865843
H         4.71307814600343    3.18857931199616   -0.87530529327583
H         5.19286008119723    5.15493512685368   -2.53842956452741
H         2.54797284476133    3.98946608687411   -4.24767121802039
H         1.36483098967368    3.46709412071502   -1.70670696573390
H        -0.07999432867172    3.51557159226501   -4.32786461720768
H         0.78594487563108    4.95099099706589   -3.66109832006635
H        -1.54448287414336    4.55879754280518   -2.92831896125865
H         0.75363015433231    1.36171081535596   -3.85818624518576
H        -0.09292914986480    1.48306595484756   -2.39655522680274
H         1.53969845073222   -1.22969795160773   -0.83127078639873
H         0.21821612497985   -0.97639170353908   -2.03857066374828
H         0.49411846820033    0.24122794157990    0.53645880543791
H        -0.80158058170899    0.02065850531169   -0.48061977863727
H         2.49765262905840    1.67895473617011   -0.49390343387217
