35
 energy: -49.720464142789 gnorm: 0.112342331955 xtb: 6.4.1 (79825abcba525fcdf90b791dcacef51065a7a4e7)
C         3.72262969457597   -1.34105365360100   -2.69405028641972
C         3.04803158065602   -0.05528797508042   -3.14925182865824
N         4.00899010600911    1.06805911041228   -2.94792613157415
C         3.59397164159328    1.77298838912172   -1.93517601302062
C         3.97302746295475    3.18283717845825   -1.60990994444403
C         3.63987077811443    3.95417316691103   -2.89262956262525
N         4.44075741762520    4.65694914386766   -3.63041769176973
N         2.41372598341232    3.57919803032299   -3.41605333381813
C         1.28196491064624    2.96022345397123   -2.69918910430804
C         0.01348830342009    3.78364703285811   -3.04207765126353
O         0.23240615302266    5.09035896122128   -2.51007682473130
C         0.95157612201203    1.48099420094465   -2.99751041047812
C         1.84535604744344    0.44003377096762   -2.26435932714892
C         0.97325788212095   -0.72952399511858   -1.71129878390159
N        -0.09076131355673   -0.26048754136562   -0.80998312540206
N         2.57350023896395    1.17926217001209   -1.21416679752578
H         4.75542613598472   -1.43824173275981   -3.04924553717751
H         3.08297785495232   -2.14227869255505   -3.07879181330611
H         3.65500159052756   -1.37873216323343   -1.60485129768992
H         2.61619934134315   -0.13569372194399   -4.15611341324334
H         5.05666417511357    3.25667991526901   -1.48765663362531
H         3.44658256186155    3.35655149971421   -0.66934995301706
H         5.28679490724905    4.86445960081996   -3.08511268981493
H         2.21378236814743    3.83084110308474   -4.38693123825727
H         1.38630507633336    3.17258427634333   -1.62654009438183
H        -0.88359282891796    3.41829069012275   -2.53179559024897
H        -0.14760842722069    3.84179109288080   -4.12586104486391
H         1.12712813385006    5.31626089852672   -2.82836624435220
H         1.18962355168577    1.43837492336177   -4.06876539070422
H        -0.11994386664297    1.39628051641543   -2.77147198115612
H         1.63551514446242   -1.37715357961110   -1.13733485007899
H         0.54372006478855   -1.35729458716577   -2.50192008650236
H        -0.17618570130397   -0.76776919823888    0.06737912996689
H        -0.97495137284214    0.11476274550463   -1.15695608923635
H         1.97618345899455    1.65102172839884   -0.53821630763627
