35
 energy: -49.719847422214 gnorm: 0.118946350892 xtb: 6.4.1 (79825abcba525fcdf90b791dcacef51065a7a4e7)
C         3.86267971044136   -1.31213031281515   -2.76967551019338
C         3.08654811335493   -0.04827137394330   -3.10991768716294
N         3.94868649937104    1.16001115912027   -2.95940949269353
C         3.62852551664947    1.72173236926508   -1.82945611061163
C         3.94329637361096    3.17673974592939   -1.68444654003833
C         3.55901641520189    3.80915358314807   -3.02746695166309
N         4.38117053014395    4.36746112477064   -3.85933237435160
N         2.20951604737270    3.70994401328564   -3.32245176203119
C         1.17923003126050    2.98843818833958   -2.55054048821736
C        -0.04924332182849    3.81630747952378   -3.00892621633205
O         0.05851569142959    5.22309058157406   -2.79030497546747
C         1.00673776743496    1.49178295009536   -2.89192151355862
C         1.91038709736795    0.44026646941131   -2.18645528563824
C         1.04252973187153   -0.71736602839007   -1.60249714278328
N        -0.06102552258661   -0.16792366572023   -0.79951467036188
N         2.65499265962243    1.08087077077105   -1.08430030705908
H         4.71534558656432   -1.41087988794758   -3.45194165982085
H         3.10126787849948   -2.09615137114967   -2.70108193559407
H         4.29937005824764   -1.18085540789581   -1.77749805510738
H         2.61497719012080   -0.14902443247672   -4.09692533421287
H         5.02480285403273    3.26357531061840   -1.55227070583752
H         3.28244287392700    3.55458665012079   -0.90183656896043
H         5.37716380000694    4.33375204665804   -3.60821753714687
H         2.08962537418410    3.95656994687268   -4.30769663335932
H         1.30233988373691    3.13842056478122   -1.46937948557532
H        -0.95139279526024    3.51657890672658   -2.46586388168120
H        -0.14884709796750    3.61567365120945   -4.08305120072349
H         0.98013740436716    5.45836521109652   -3.00968256553907
H         1.01265732350495    1.53770555909257   -3.98915724863867
H        -0.02905699730764    1.26671156974504   -2.60400323259433
H         1.69932470976062   -1.43789848749156   -1.11577681036266
H         0.76683962841436   -1.20739635820763   -2.54459371369687
H         0.31906067866234    0.22454444524418    0.05833135158207
H        -0.75478089257889   -0.87853472777333   -0.56133304424928
H         2.02935153386646    1.52572497040353   -0.41577102675846
