35
 energy: -49.713669201138 gnorm: 0.121839155000 xtb: 6.4.1 (79825abcba525fcdf90b791dcacef51065a7a4e7)
C         3.63113442337606   -1.48564022452640   -2.62282393052607
C         2.98563931074256   -0.20939409188625   -3.14245486764670
N         4.00526203223386    0.87970077576938   -3.13132461548349
C         3.76112948555363    1.62129682462409   -2.08956503553958
C         4.39358138438452    2.96416767127871   -1.90556118073465
C         3.62162147145044    3.96628395799830   -2.77225779952477
N         3.91907182889927    5.20894863147612   -2.98894327658264
N         2.45326195653428    3.47543700385103   -3.33084096064255
C         1.20535265814656    2.89766057786399   -2.79530034885003
C         0.06485298136467    3.84671164826656   -3.24607121435863
O         0.20800766008976    5.07324624114671   -2.52943630648740
C         0.97370567270479    1.38474800042215   -3.00436186498208
C         1.88328033639411    0.40802051136846   -2.20521919014813
C         1.00061422825636   -0.60865111630460   -1.41681834815157
N        -0.36398114242976   -0.13153098903905   -1.14343615530660
N         2.76163263066509    1.13399926887393   -1.26659837796853
H         4.39621308529745   -1.80804504286926   -3.33905535614538
H         2.93436189539197   -2.29172248567046   -2.37007601223585
H         4.13315226729390   -1.31810670812959   -1.66770180661176
H         2.59229205913819   -0.17563091052100   -4.16756579240999
H         5.40061901533950    2.83609010209465   -2.31070126267270
H         4.28150919174260    3.24462982302106   -0.85639255374267
H         4.77747946608356    5.42210340987174   -2.46558972740538
H         2.08457930753840    4.16814926696328   -3.98668273761023
H         1.26200166394542    3.18672267608690   -1.73709721094959
H        -0.87636014528563    3.35634380207203   -2.97721285289317
H         0.20626860733146    4.14113085706742   -4.29356263521739
H         0.97286391490710    5.51226557450892   -2.94791473616573
H         1.21630142468164    1.25835355769028   -4.06796045307237
H        -0.07696120824811    1.17630591938316   -2.76130658514164
H         1.44449013588904   -1.03517553830423   -0.51765515682954
H         0.76632707234240   -1.46005580948185   -2.06789459829900
H        -0.34770705209284    0.73614420520638   -0.61308584978911
H        -1.04796343119198   -0.79024036931553   -0.76758344282497
H         2.21258518585218    1.76010246424682   -0.68111124716248
