35
 energy: -49.723293287496 gnorm: 0.110132831743 xtb: 6.4.1 (79825abcba525fcdf90b791dcacef51065a7a4e7)
C         3.66599473735478   -1.36792486943733   -2.58146105794924
C         3.05189628143425   -0.06507451971280   -3.07232608694756
N         3.99847874163444    1.08488205264191   -2.98593438632645
C         3.64011870090884    1.70421668640338   -1.89835399312182
C         4.02186849731223    3.11781824475180   -1.59314476637754
C         3.70535718177242    3.81897861647468   -2.91961260353616
N         4.52691908309149    4.33324690378845   -3.77996659095497
N         2.36620156200526    3.82794385859725   -3.27258809768573
C         1.24241743868627    3.08845582864092   -2.66581494536111
C        -0.02645970992260    3.83086512506901   -3.15918200332394
O        -0.04522151829364    5.05520545911530   -2.42495812217379
C         1.12941435177361    1.59795785987544   -3.05558103345186
C         1.83799323509977    0.48250585733591   -2.23482867720574
C         0.91469643863315   -0.68204687050051   -1.75981660209874
N        -0.19154215030523   -0.28531679319495   -0.87474972196161
N         2.58367927693354    1.18489549520662   -1.17173976440769
H         4.58040225947082   -1.52717777020067   -3.16522049106958
H         3.07363589524754   -2.26519889203803   -2.78919262677755
H         3.88066003871719   -1.37946823978095   -1.51088494294633
H         2.76622677644445   -0.14238629594012   -4.13021560455965
H         5.08764841831507    3.24131496456717   -1.38450906090099
H         3.48234461140609    3.60186816421391   -0.77669902242102
H         5.44515636507013    4.34777929211059   -3.31863517602423
H         2.30923113399813    3.89161020125577   -4.29170858276407
H         1.18867852631841    3.38038650104051   -1.60824769946058
H        -0.88622893556801    3.25311169699778   -2.80474519246589
H        -0.15708762762251    4.08374422961484   -4.21885545705267
H         0.76532137147778    5.53388208246123   -2.68333028902588
H         1.60081353712641    1.45044660831734   -4.03644465529002
H         0.03449679800173    1.52680010787275   -3.10575053626855
H         1.54882306223454   -1.41789751073602   -1.26600428188884
H         0.38997585566490   -1.09702710251781   -2.62937994584508
H         0.27094976245801    0.01923341644403   -0.02166887161436
H        -0.83408982297753   -1.05817541857061   -0.69359477792820
H         2.03115966486209    1.79891344997862   -0.57679648382505
