35
 energy: -49.722557024567 gnorm: 0.109245328149 xtb: 6.4.1 (79825abcba525fcdf90b791dcacef51065a7a4e7)
C         3.42612562573055   -1.50419336463781   -2.32924039596913
C         2.94529225140948   -0.22404403336490   -2.99669930395305
N         4.05650475286528    0.75363517880267   -3.18440154388680
C         3.94766624008898    1.64922951603560   -2.24584235134872
C         4.48079809176983    3.04595553630648   -2.20021617349826
C         3.76055539021124    3.88621706915299   -3.26159883678209
N         4.29235753546625    4.47606481982937   -4.28576234694779
N         2.39091011769657    4.03704826606743   -3.12256072915820
C         1.33523154794292    3.17311128223508   -2.55947761238429
C         0.06089923567537    3.91477293984707   -3.03973481268601
O        -1.13917220645988    3.25973773691116   -2.62839143561051
C         1.28673257949467    1.69977944072920   -3.02122716650551
C         1.94825356254417    0.61884279576742   -2.11905332466596
C         0.87657454092847   -0.17512308244907   -1.30947392196990
N         0.32307150591730    0.68036105171045   -0.24820898718906
N         2.99085538297416    1.28654991529803   -1.31487325031976
H         3.95952437188292   -1.52163938162094   -1.37139954964513
H         4.00887835976312   -2.15414447703394   -2.99037947481931
H         2.53125006309102   -2.11323655418771   -2.18567233373797
H         2.59989789865129   -0.54951975893324   -3.98739739493873
H         5.57163992038883    3.08009364461473   -2.25993056192506
H         4.10430704127502    3.45412711119681   -1.26020316283160
H         5.29447236385565    4.25397826499013   -4.33715297102554
H         2.10532800660970    4.53927698267156   -3.96642965860086
H         1.27473775354511    3.23814567420880   -1.46463931364380
H        -0.15527661840166    4.05658822632470   -4.10358819234465
H         0.06562955959936    4.94184458543385   -2.65370270250800
H        -1.13408313815811    3.24519016607843   -1.65236391016305
H         1.75720450523503    1.68303406867010   -4.01341967237720
H         0.21979628317311    1.48199544051877   -3.16490019921055
H         1.41515213231679   -0.94466746120041   -0.75704384399954
H         0.11816243421374   -0.58536460992237   -1.98784967931562
H        -0.20357076543214    1.36875671027128   -0.78033291660375
H        -0.41075029602588    0.18569957409090    0.26150727803856
H         2.57978109523207    1.88702196287363   -0.60304129733715
