35
 energy: -49.722439945975 gnorm: 0.131825286358 xtb: 6.4.1 (79825abcba525fcdf90b791dcacef51065a7a4e7)
C         3.79534306241870   -1.28052067682083   -2.60181409371398
C         2.97747781433165   -0.10021736042274   -3.10526713001242
N         3.97755276679638    1.00677989027193   -3.12227288361112
C         3.67648198562164    1.62294503105700   -2.01569015161447
C         4.29302404451018    2.96897722740858   -1.80302098078980
C         3.66402649505296    3.92876231362150   -2.82012317297533
N         4.21036709435587    4.84144347450627   -3.56050811334143
N         2.39063389435518    3.57609971020849   -3.23498487462913
C         1.19843678276333    3.05271837312858   -2.54025830651746
C        -0.07791558777743    3.66690509377974   -3.17139311854056
O        -0.08918313426206    5.08413631138053   -2.99883969931330
C         0.94438245367379    1.55289183105193   -2.80904871274337
C         1.86000604616970    0.47590610295409   -2.15967449939848
C         1.01245458471715   -0.69451806172424   -1.57140554110257
N        -0.17362381311812   -0.15043593663079   -0.89192437823837
N         2.71098781717321    1.13845846228635   -1.15150221614356
H         4.74309014862091   -1.52874407939025   -3.09419431234716
H         3.16403215273362   -2.16855339097076   -2.71129704169138
H         4.06541635848291   -1.18924942333296   -1.54773741846152
H         2.64164357571375   -0.19172557679288   -4.14716733147944
H         5.36069022336029    2.84255001796124   -1.99992765367036
H         4.11754796769592    3.31296456046873   -0.78181832456351
H         5.19653867651409    5.07764244741042   -3.39355537408152
H         2.16291324980230    4.21818299724540   -3.99772858364642
H         1.25834503444554    3.25202806546335   -1.46171923479912
H        -0.96540640823246    3.31955776916760   -2.63256338686342
H        -0.17224237144694    3.41337124480119   -4.23475682792433
H         0.79845248951957    5.39788458176372   -3.25677822720529
H         0.89981937737995    1.36221045505719   -3.88966194252120
H        -0.06760621484930    1.34746277270495   -2.43474574286713
H         1.53388894911304   -1.42910846567675   -0.95827708980906
H         0.71993008254627   -1.23846237131608   -2.47817713408447
H        -0.01919661748376    0.35839718567018   -0.02495400331991
H        -0.90868047414871   -0.80415702575860   -0.61745120034790
H         2.33073613398243    1.83650946787427   -0.51558795998908
