35
 energy: -49.717092680967 gnorm: 0.109943292230 xtb: 6.4.1 (79825abcba525fcdf90b791dcacef51065a7a4e7)
C         3.59045076428263   -1.44910929802503   -2.86772007183413
C         3.00043136798416   -0.09763894618938   -3.24307248404410
N         4.02216969527301    0.98637464741675   -3.16032402976293
C         3.76544366703060    1.64774495672907   -2.06876118002914
C         4.33573996524443    2.99944544415456   -1.77751760159892
C         3.54791967268456    3.97509033438235   -2.66000181893125
N         3.95470621753063    5.16476435498114   -2.97439841160881
N         2.42090879286628    3.50841673148539   -3.31580061003899
C         1.23752770221416    2.85448445466679   -2.72428666849811
C         0.00560286430938    3.71625476503980   -3.10421422946255
O         0.06870592990702    5.07186005467867   -2.66059473992311
C         1.03978824721692    1.39267452118233   -3.18285221634261
C         1.86121635880846    0.41956362751305   -2.28939671649761
C         0.99824159570016   -0.59722115741859   -1.47963143932667
N         0.02782830009594    0.15690816252939   -0.67087376469642
N         2.71744852711843    1.13694298858806   -1.32410388062433
H         4.19662491135073   -1.51026169346699   -1.95607816700923
H         4.28295676135894   -1.77028730018957   -3.65284567575528
H         2.79404928792629   -2.17488000269350   -2.69066291669525
H         2.68265612042598   -0.25118163740341   -4.28334069281066
H         5.37293499942539    3.13394991750108   -2.09501112203477
H         4.19509739528473    3.08882309537705   -0.69853415105447
H         4.81195881265211    5.62103957292861   -2.63805266418839
H         2.17276404676484    4.14961840350397   -4.07289386650397
H         1.30914409905577    2.98686748188226   -1.63621235595557
H        -0.95668704415562    3.23801795789595   -2.89465451425362
H         0.04890233373583    3.66753321864006   -4.19950903030833
H         0.34727080124641    5.11099348550248   -1.72585550039685
H         1.38389958337890    1.31901898082078   -4.22315623786642
H        -0.00536979174009    1.05495433693966   -3.17902930373891
H         1.71739309641897   -1.07098555950081   -0.81194006337561
H         0.63468607906852   -1.26791814997250   -2.26809427269318
H        -0.38887843373803   -0.31844169735230    0.12586618237574
H        -0.66101097352891    0.57426013846679   -1.29881712846565
H         2.18025541467945    1.37225418999361   -0.49205480672060
