35
 energy: -49.719789698923 gnorm: 0.122053603280 xtb: 6.4.1 (79825abcba525fcdf90b791dcacef51065a7a4e7)
C         3.60281860632157   -1.50817996795704   -2.80300050627999
C         3.09540848083308   -0.10208623788688   -3.08746462457958
N         4.04006917169424    1.03965211006818   -2.91445671836525
C         3.70957388402137    1.71581023332176   -1.85218957397225
C         4.17139260357437    3.13340621229022   -1.73260674748412
C         3.61289631464586    3.91210690565994   -2.92969877415038
N         4.23571221403375    4.74142658922117   -3.70685644013588
N         2.28712113728252    3.73177470869992   -3.28720449301700
C         1.22397996138741    2.98814857010805   -2.58388521936927
C        -0.07816450279149    3.64859931337278   -3.10624187136181
O        -0.18428855977694    5.05092803864618   -2.85995383576340
C         1.05378252525334    1.48073901975577   -2.87546856162867
C         1.97039143903125    0.45984926107452   -2.14228104534901
C         0.98787523105046   -0.64429492099946   -1.64245694785597
N        -0.06091483844627    0.04247633083083   -0.87246562746682
N         2.72822938791325    1.13415989698338   -1.06964700924191
H         4.53629290603366   -1.57034804452637   -3.37487334896732
H         3.06276502643974   -2.36387354828100   -3.22165633729160
H         3.83367638377188   -1.75365088548137   -1.76434927549028
H         2.79159772855762   -0.04767997807441   -4.14171953413564
H         5.26282427807972    3.17915053182300   -1.76936950253455
H         3.89145257123242    3.66013786220648   -0.81818816210037
H         5.21216227297570    4.73432830319525   -3.38639978132752
H         2.11490957262199    4.14340706931922   -4.20742597382933
H         1.33207116581546    3.13742274085783   -1.50102169656723
H        -0.95055195473035    3.22586882297532   -2.59745245817251
H        -0.10598756682544    3.40543011722254   -4.17582775308479
H         0.70464095747680    5.40592450528579   -3.05139334135527
H         1.12731401861111    1.14432898097123   -3.91829722699902
H         0.11835534912182    1.27555853707698   -2.33760067250657
H         1.56983276580180   -1.27722633269430   -0.97300446368485
H         0.40693939174806   -1.12792794202888   -2.43762571443095
H         0.32157537219595    0.48399246341822   -0.03990254563655
H        -0.67730731586818   -0.70414868058662   -0.54749409646751
H         2.26879050052070    1.72997532460673   -0.38395511629056
