35
 energy: -49.714225882529 gnorm: 0.115754230670 xtb: 6.4.1 (79825abcba525fcdf90b791dcacef51065a7a4e7)
C         3.25671887990226   -1.60075505678414   -2.80769869867405
C         2.88435018862285   -0.15586004982249   -3.10620234911223
N         4.07809175204856    0.73421241859533   -3.19912217898483
C         3.89256412850698    1.54977677919145   -2.20149364066315
C         4.61026922572055    2.85971706467647   -2.12332221188430
C         3.89755657684492    3.95015751467081   -2.93221187148240
N         4.47866289934552    5.02148100846656   -3.37292291489224
N         2.53213487563100    3.91227293612411   -3.16068107434127
C         1.39573366702872    3.20088507414879   -2.54389377690817
C         0.22135628890921    4.14606309288227   -2.90736060480866
O        -1.06481611550660    3.53785733484795   -2.78781035181439
C         1.09903743463048    1.73172861699423   -2.91782182493823
C         1.88630245374603    0.61862313938505   -2.16871456164368
C         1.05364144848928   -0.31389226641839   -1.23523330760349
N        -0.31921991952699    0.15945357127491   -0.99923042047843
N         2.88876300805882    1.25972529640828   -1.29486226531772
H         3.44029112410211   -1.88258947664668   -1.76407603163598
H         4.22937965771139   -1.67854008274891   -3.30471236844572
H         2.51031173031129   -2.26908378984100   -3.24193451153931
H         2.45497240679587   -0.15991012609880   -4.11730706702707
H         5.68332813140193    2.85944303333280   -2.33119631989649
H         4.67625195470197    3.13759106724240   -1.06956402297218
H         5.49652204388545    4.88278317859497   -3.40330782536005
H         2.37858347847865    4.76397264242612   -3.70559866319434
H         1.39791303714438    3.28682367552526   -1.44882770745766
H         0.27578817598674    4.35600654266181   -3.98048152934510
H         0.32339292915454    5.08471793355244   -2.34840179824766
H        -1.40714380486525    3.52694507450127   -1.87372067571015
H         1.25807459543341    1.62084592583105   -3.99878548001472
H         0.06851530078636    1.48637492236031   -2.62756232135059
H         1.58093097414256   -0.28507640115806   -0.28203932203274
H         1.05225748867557   -1.29201446603793   -1.73217974602418
H        -0.49313465285834    0.19158039081453    0.00232740223731
H        -0.99177106555815   -0.39660817820159   -1.52976352313053
H         2.46574894071258    2.00910169979467   -0.75103545313316
