35
 energy: -49.716661714401 gnorm: 0.117224329677 xtb: 6.4.1 (79825abcba525fcdf90b791dcacef51065a7a4e7)
C         3.83122727118548   -1.29745200683072   -2.51885408721659
C         3.10236984606496   -0.12374026882317   -3.15654684510949
N         3.95228508362629    1.09807968663603   -3.05319261586738
C         3.61921877960672    1.64184259131969   -1.91819606519679
C         4.11068497770495    3.03420590488525   -1.67957435379741
C         3.58677303124102    3.82613121930200   -2.88360622807275
N         4.09074168493035    4.88345862875059   -3.43833062380243
N         2.34272811644441    3.52822515745221   -3.41427946400336
C         1.20871212079623    2.85951320317426   -2.74739188733855
C        -0.00964076848227    3.77062734490533   -3.04759032598589
O         0.10239600546433    4.94041642553730   -2.23673446252567
C         1.06860438795286    1.41301414936277   -3.27111115145001
C         1.83158243022606    0.38836623933946   -2.38346658599898
C         0.79507092819139   -0.58418492140407   -1.73997244349133
N         0.14149467797963    0.18202953703768   -0.66747280693600
N         2.53612671944375    1.06699429021234   -1.27773684529691
H         4.84522983050252   -1.41785666996687   -2.91832774934957
H         3.26464735775893   -2.22739738672146   -2.63431348131042
H         3.89679717873411   -1.16475631757821   -1.43698528397840
H         2.97458927747973   -0.36381349753367   -4.22085478256333
H         5.19979205474900    3.12492140412854   -1.69641515292456
H         3.75966221041151    3.35529675486725   -0.69689552788598
H         5.07914370588133    5.14605620601832   -3.33683424333250
H         2.23777641852907    3.76461490945061   -4.40372912061164
H         1.35713279210503    2.93371347388723   -1.66156247230778
H        -0.94169661931478    3.24658212272102   -2.81248164585786
H         0.00945187035652    4.06400146410204   -4.10470263324982
H         1.02586608320816    5.25325548442302   -2.18980899462583
H         1.63161131207290    1.25940830476858   -4.20143296387291
H         0.05889165561173    1.04571912153073   -3.49914497676459
H         1.09580676232237   -1.58661593806993   -1.43643765680112
H         0.12835708343644   -0.84894551707351   -2.57007797242010
H        -0.33159390171753   -0.49609617109285   -0.07524881229518
H        -0.58512947894062    0.78878327486940   -1.05069900997228
H         2.16915035180682    1.47091377853408   -0.41841684288282
