35
 energy: -49.720170662881 gnorm: 0.116283386780 xtb: 6.4.1 (79825abcba525fcdf90b791dcacef51065a7a4e7)
C         3.67202690644545   -1.29363210921437   -2.95997793468466
C         2.92890606933674    0.00516683533462   -3.23634211930251
N         3.92976694283817    1.10224309305391   -3.09287364155520
C         3.72197705559961    1.57068637693337   -1.89612275660604
C         4.19976212599419    2.94336201157697   -1.54308172444739
C         3.62237026251259    3.83596569017748   -2.64816067845033
N         4.16145321890866    4.91456888026796   -3.12318649450161
N         2.46382637350665    3.43626366628594   -3.29316004834765
C         1.21335942215965    2.91574581359510   -2.70724151641131
C        -0.04317691501578    3.69199949559287   -3.17965921812853
O         0.16259962294839    5.10062766178914   -3.07071581678567
C         0.83880667996371    1.44832014323417   -3.01161574643922
C         1.77192609593037    0.45032093100386   -2.26781644131912
C         0.96530808370260   -0.66595110478984   -1.53460386111665
N         0.24293356921068   -0.01061911326624   -0.43314254811154
N         2.62958254783534    1.04951752947648   -1.22620913176250
H         4.62707174086653   -1.28184317572649   -3.49852047453567
H         3.12499851905060   -2.15863640540016   -3.34942573435793
H         3.89587373185247   -1.22677602124958   -1.89331466473970
H         2.57203244621718    0.11286019609278   -4.26966577498770
H         5.27456650655899    3.13449176769038   -1.48893289719776
H         3.68670564942825    3.28339120037310   -0.64134605814185
H         5.12282645184926    5.15516763609026   -2.85102605495629
H         2.39564992544261    4.00783388700869   -4.13847954445308
H         1.33169522782406    3.24264080762561   -1.66527405749516
H        -0.93869389494464    3.51819647166861   -2.57429202582285
H        -0.17100485039088    3.34927701147975   -4.21412557837614
H         1.01268542003875    5.22990878007449   -3.53278485057319
H         0.87371660288920    1.19719550515589   -4.08016051182772
H        -0.23133034702865    1.37115608372071   -2.77650446407667
H         1.69285572735978   -1.37288317376477   -1.13665306179324
H         0.30866311699473   -1.05044264485612   -2.32496096956877
H        -0.13784409268898   -0.77847890641389    0.11439398142949
H        -0.53831138861105    0.53707534674006   -0.79739820100453
H         2.21795294418329    1.45021161539804   -0.38581708281661
