35
 energy: -49.718370185012 gnorm: 0.116822352723 xtb: 6.4.1 (79825abcba525fcdf90b791dcacef51065a7a4e7)
C         3.44288148458652   -1.40845567207960   -2.30024862004376
C         3.01824343234644   -0.10565969773557   -2.96198093805811
N         4.17160943494652    0.83822657879825   -3.03059283595004
C         3.83983582871369    1.70505529716625   -2.11770583662049
C         4.47111481580519    3.05988103382023   -2.17328456173894
C         3.80408098547977    3.79652063392581   -3.34108169747034
N         4.31794104458650    4.75086012030650   -4.05159474369784
N         2.52672517811514    3.45326064543053   -3.75162350028475
C         1.39787546495697    3.10707072607148   -2.86632250285682
C         0.13760733880139    3.96380331044734   -3.15331618850556
O        -0.77231202402655    3.91480742092647   -2.05418375021902
C         1.02895681835050    1.60701918446355   -2.86232599016077
C         1.89636870132931    0.57114986731368   -2.09127272872229
C         1.07129992707389   -0.38714906458020   -1.17736830467899
N        -0.20779683460024    0.18938831315074   -0.73462896550448
N         2.80022318532824    1.39133405643235   -1.26066935569821
H         3.77511943582061   -1.24070358208244   -1.26886369092034
H         4.30018247572109   -1.91575130269705   -2.75503235268547
H         2.63433079041929   -2.13933100321707   -2.36669184862092
H         2.66731263759404   -0.23528477813605   -3.99482137200976
H         5.53757071408385    3.06980761026192   -2.41253425152736
H         4.26313634946603    3.64948418907070   -1.27824988375579
H         5.28659614167380    5.07440339064791   -3.93659643989240
H         2.28128357491115    3.96334417854284   -4.60337393756608
H         1.51551787994926    3.48292997851187   -1.84092015010224
H        -0.31915842195628    3.79864247826335   -4.13449636228779
H         0.52260350012590    4.99097020614701   -3.17832540692467
H        -1.71302393342936    4.03304719355210   -2.28645023370814
H         0.89562401929276    1.19903097663623   -3.87318612578217
H         0.00778016099067    1.49177584459672   -2.47458626043158
H         1.69888426682695   -0.69233893112560   -0.34044511824482
H         0.82350480489809   -1.37810863222379   -1.57771494879554
H        -0.85437247449194   -0.49347055216727   -0.34727866668286
H        -0.01833538849676    0.78657228727130    0.07188870402407
H         2.36785959769505    2.14647385159460   -0.73238996486711
