35
 energy: -49.717708157282 gnorm: 0.129661114443 xtb: 6.4.1 (79825abcba525fcdf90b791dcacef51065a7a4e7)
C         3.50437220807903   -1.42954235220047   -2.29401280460939
C         2.88311716333526   -0.22757561026821   -2.99029047621126
N         3.92574598693937    0.76114555986894   -3.39183451177179
C         3.86490179247801    1.56101039929110   -2.36648449236885
C         4.52033951995952    2.89415255401866   -2.19244902710102
C         3.76298564625126    3.82615384260570   -3.14592209809342
N         4.31334743865800    4.88136344705987   -3.65902969310035
N         2.40538986520367    3.75811287313650   -3.41108988436237
C         1.28624043862287    2.99327445860432   -2.82762289617882
C         0.09292584232459    3.87079244467157   -3.28652845545712
O        -1.14539678748349    3.52069673153752   -2.66811433954405
C         1.00481612588025    1.49527029067323   -3.07873127130619
C         1.83623074999824    0.57841643664753   -2.13635105601692
C         1.01014341093698   -0.18027651858159   -1.05179524068086
N         0.38239376895953    0.85096349042940   -0.21097633830083
N         2.89684933678844    1.30609786033264   -1.41169600168032
H         4.25265047375036   -1.03770335493977   -1.59485650830332
H         4.06164741812419   -1.96210853961879   -3.07180434821979
H         2.75431651534424   -1.97100822551546   -1.71385865289084
H         2.42432855692227   -0.61095786727993   -3.91183564614285
H         5.57384728540288    2.93886731311207   -2.48018002069259
H         4.48620339657058    3.19286796927197   -1.14288824815044
H         5.30287473004299    5.01645757506609   -3.41657788182502
H         2.06043486909810    4.25238249632137   -4.23729154422355
H         1.28473274729080    3.09331263645199   -1.73375362448424
H        -0.05415595809152    3.64295865087777   -4.34722931276580
H         0.27678883105566    4.94265632412283   -3.14085224352857
H        -0.97977111215069    3.34868538418570   -1.72162213494113
H         1.41021111910618    1.16933602837492   -4.04593961389663
H        -0.07709362814110    1.32945106228689   -2.98707895959200
H         1.71357969901819   -0.69535722686448   -0.39810370247892
H         0.41231233371896   -0.88134772432536   -1.64742758597307
H        -0.30996889032189    1.40123442848893   -0.71320376131210
H        -0.16428448764162    0.33545194330523    0.48067806829628
H         2.66042663797744    1.97408009671238   -0.68083518285764
