35
 energy: -49.721106653652 gnorm: 0.114932779045 xtb: 6.4.1 (79825abcba525fcdf90b791dcacef51065a7a4e7)
C         3.74310293584481   -1.39169304810026   -2.74195837842453
C         3.07941593364022   -0.04851908612082   -3.00820583580507
N         4.10167762752058    1.02927576119887   -2.86956493807196
C         3.67457578307030    1.70841374892822   -1.84429227916846
C         3.99241683105977    3.16084065485936   -1.68123379653713
C         3.61875865948849    3.91120556984956   -2.96523310840902
N         4.49821432498336    4.52740072640956   -3.69084047017843
N         2.32282003877530    3.68785444625584   -3.39959145936640
C         1.21655424311303    2.99407698580344   -2.71201908937022
C        -0.02014985165001    3.87202366665104   -3.03513583093422
O         0.18931386851622    5.09548860536915   -2.32965411263589
C         1.02594334465842    1.47940759922224   -2.94806066328780
C         1.85984079357875    0.44137916585461   -2.14365797991200
C         0.93230694711134   -0.72986463737448   -1.69402984531437
N        -0.34673354872723   -0.22782830142774   -1.16818110522306
N         2.67039223243176    1.10858557357598   -1.10567970016941
H         4.67365231105610   -1.58705988540203   -3.28802370230472
H         3.13686713710153   -2.21650253447330   -3.13094365606281
H         3.93167014158403   -1.57240740049225   -1.68170727795575
H         2.82885035337443   -0.07851664258481   -4.07733233010911
H         5.03913719514756    3.35384053640356   -1.43264849517368
H         3.45926076182151    3.67815569470534   -0.88116895316956
H         5.46177223869264    4.54621615824053   -3.33390954775564
H         2.11147047618221    3.96750827736439   -4.36033631276411
H         1.21658487759811    3.20073907921699   -1.63319998882754
H        -0.86021534842584    3.37265411468870   -2.54163040017010
H        -0.23458055722180    3.95086736573437   -4.10831916366339
H         0.81357361408951    5.64179184678397   -2.84416339347167
H         1.14977465285364    1.31228531107151   -4.02639555848055
H        -0.02334545902342    1.25687690899416   -2.71163315444736
H         1.41027691674941   -1.35085146892634   -0.93682220198814
H         0.68779269262293   -1.40388192358892   -2.52444792087671
H        -0.18642117718493    0.64110455144698   -0.66454216902495
H        -0.86350233166145   -0.96292989215425   -0.68282478161212
H         2.19999265649376    1.78783736813816   -0.51104138535631
