35
 energy: -49.724074794318 gnorm: 0.111462293220 xtb: 6.4.1 (79825abcba525fcdf90b791dcacef51065a7a4e7)
C         3.37146953770383   -1.44275628420356   -2.91508756596921
C         2.91664265081580   -0.01285686160100   -3.16807879665908
N         4.07281814698751    0.91610215339135   -3.00629077060750
C         3.77946367389334    1.62027045999588   -1.95134120684667
C         4.34106841693894    2.99086076000461   -1.74340538434918
C         3.85143382998324    3.74714685834196   -2.98421622161357
N         4.55202855891945    4.58322289667925   -3.68406527965376
N         2.59462289779667    3.35511175031111   -3.41403550930727
C         1.33031030436320    3.17602214442153   -2.67420608692077
C         0.31903318582058    4.23657176109897   -3.18134011101667
O        -0.95085303441638    4.24952764051480   -2.52890844514460
C         0.87091555541576    1.70721427639313   -2.80774051829953
C         1.80110414428010    0.59647619417666   -2.24120563714191
C         0.90612989988272   -0.47128718762802   -1.53892433633262
N         0.20518530193357    0.27705099350022   -0.48385627178008
N         2.66098356929166    1.24280686450644   -1.23005728612941
H         3.98213932974473   -1.55715695606456   -2.01160952876158
H         4.03073461825489   -1.71264306087106   -3.74675622556329
H         2.65395298288862   -2.26123756300950   -2.82787492459899
H         2.62595929061450    0.11019203368525   -4.22025585641442
H         5.42899484113520    2.90637347344431   -1.68059502016156
H         3.91538137492328    3.52737100764308   -0.89315758993631
H         5.49994210499948    4.71987481487029   -3.31126006295755
H         2.32190780089411    3.51990556818999   -4.38582513525906
H         1.65351150320603    3.38102176772862   -1.64460615045386
H         0.17497536090281    4.18019511372656   -4.26517432501351
H         0.76930858335103    5.23179793851797   -3.07791743964899
H        -1.40140999338928    3.38406523006448   -2.55789983244720
H         0.58463149683034    1.53291058109043   -3.85355592301234
H        -0.09643810915349    1.68069166631266   -2.28817501725107
H         1.55358999751978   -1.29140343074662   -1.22965401702703
H         0.15900857191951   -0.86553572904650   -2.23896613432435
H         0.91428686104259    0.49931177811584    0.21052954596841
H        -0.45190945724217   -0.34555862863417   -0.01101504740665
H         2.26165628954805    1.76769687198657   -0.45463373416066
