35
 energy: -49.724607476671 gnorm: 0.100904519145 xtb: 6.4.1 (79825abcba525fcdf90b791dcacef51065a7a4e7)
C         3.08733046982120   -1.55381643533996   -2.37887379650117
C         2.61319927506034   -0.23522108704347   -2.97216156431130
N         3.73702411549051    0.63902988307461   -3.41779031667772
C         3.89378818157401    1.56615884866604   -2.51740966022294
C         4.72067146977561    2.80827885850012   -2.41466315133022
C         3.89846689355615    4.00503443356103   -2.90769248239787
N         4.40150767707337    5.13122617261521   -3.30554540247450
N         2.56226058604132    3.77372073677281   -3.18886242440893
C         1.37924348127908    3.31997880763545   -2.43222790376118
C         0.27755140566762    4.24847139134689   -3.00564569234203
O        -0.90373071012594    4.10115988283535   -2.21740851220576
C         1.04763556145565    1.85065511147486   -2.77485838699533
C         1.88392990437971    0.78001622408446   -2.01703526530253
C         0.92783492988920    0.04657173037737   -1.02595596603349
N        -0.01132246691270   -0.83726797907797   -1.73399038664644
N         3.09037574573776    1.37400564372242   -1.40775538212641
H         3.19275944740290   -1.37767542501696   -1.30177734733689
H         4.05532998995075   -1.85256686146394   -2.79464680562887
H         2.35495936518160   -2.31738439132936   -2.64895566067786
H         1.98517489031348   -0.42548055705434   -3.85312758995008
H         5.63325226928862    2.67300065827500   -3.00080582449562
H         5.04865011764017    2.92500505995035   -1.37987863168163
H         5.42447429892430    5.18608383214924   -3.22352410982136
H         2.22657334488512    4.56037320004787   -3.74957411324336
H         1.46766504559744    3.42933051153868   -1.34283186549083
H         0.01571212375310    3.98076263012394   -4.03443129305359
H         0.58090368559875    5.30085907687700   -2.93948760975944
H        -1.18452090151489    3.16629389940071   -2.22446000229216
H         1.10671190993448    1.81624247318727   -3.87094049173412
H         0.02005105490551    1.54632983873826   -2.53427347670062
H         0.36842579715890    0.72958947211168   -0.38721379979876
H         1.55785018591452   -0.56451123997416   -0.36767099720286
H        -0.55680458336524   -1.37421660249792   -1.06426508677566
H         0.50710841703313   -1.56229072740265   -2.23255484679868
H         2.93136115447343    2.12235416262738   -0.73623297123533
