35
 energy: -49.727275303614 gnorm: 0.108103885008 xtb: 6.4.1 (79825abcba525fcdf90b791dcacef51065a7a4e7)
C         3.59437490812502   -1.46065105857602   -2.64012407498197
C         3.04928208888028   -0.12845745614266   -3.13370131133025
N         4.01892263478309    1.00259666033633   -3.05372746349677
C         3.76146280300768    1.60499507776540   -1.92871234530272
C         4.27824709132360    2.97524567490445   -1.62457051250427
C         3.70156045406025    3.86414092632948   -2.73300181449396
N         4.33659309862392    4.86156250414008   -3.26359446163734
N         2.44813954059323    3.65169218169877   -3.28237545584566
C         1.23173368869495    3.04550868878859   -2.70721863455550
C        -0.00301293962651    3.78155813487933   -3.28882316117352
O        -0.28425559953662    4.95639397526135   -2.52783086299591
C         1.11727601972421    1.55095221409128   -3.08067807134517
C         1.87324800052246    0.45952459264728   -2.26997230740663
C         0.91673789673028   -0.61040605099496   -1.65789924726443
N        -0.20865088634718    0.02266705195516   -0.95276059426538
N         2.66383499707725    1.14117283087513   -1.22599680310128
H         4.51925100967835   -1.53016469217303   -3.22497426151595
H         2.80926064801286   -2.17997078862441   -2.89569561427806
H         3.89301184641786   -1.51590251707366   -1.59126234671620
H         2.64661960674510   -0.31484275482295   -4.13860821301054
H         5.36644492873372    3.07758793976517   -1.62024968685788
H         3.97963471275520    3.20220965196736   -0.59924519665337
H         5.34642408826775    4.93629461972920   -3.08794126145256
H         2.35988308687280    3.99260017373428   -4.24253072218525
H         1.16295201550193    3.09809938128891   -1.61220119567131
H        -0.90225945221603    3.15794140199737   -3.32176973007224
H         0.16427923804462    4.01648489499788   -4.34747422601399
H         0.44425197941533    5.59222636139084   -2.66147646046709
H         1.44841303910285    1.35095629650248   -4.10850107613573
H         0.06112497620886    1.26688269765101   -2.97931549720743
H         1.42338719055838   -1.21487565435629   -0.90599076952251
H         0.49000789100079   -1.15712238018654   -2.50800716726717
H         0.15387794831693    0.35087534882405   -0.06099341683028
H        -0.89651459897712   -0.72402766738205   -0.84192017897512
H         2.13760525330762    1.69291803248948   -0.55152443038844
