35
 energy: -49.715231798703 gnorm: 0.121903995200 xtb: 6.4.1 (79825abcba525fcdf90b791dcacef51065a7a4e7)
C         3.44093016203663   -1.47468011836008   -2.71145831848604
C         2.94624478445145   -0.12401615152271   -3.20792350118621
N         3.98316820897296    0.94805765392930   -3.17146017718831
C         3.70370015711495    1.60322793067444   -2.08174556045555
C         4.23727846240353    2.94143138862226   -1.67967510131570
C         3.59156875218776    3.93456000841744   -2.65336741568710
N         3.97151083166580    5.16707378999909   -2.78064119626830
N         2.52178613724193    3.52976923731442   -3.43421276018350
C         1.28555508609024    2.94490809805180   -2.87961631689310
C         0.05239747533332    3.82482516604599   -3.21082632085628
O         0.10298659626689    5.21465511045699   -2.88793406789653
C         1.00143507237261    1.45912156167376   -3.19264299869914
C         1.75727515663389    0.41041163473391   -2.32727317734898
C         1.02536792569863   -0.70278500672434   -1.51523772091830
N         0.22407546198072   -0.11703437076580   -0.42926877825224
N         2.60377955060770    1.15389928697498   -1.37322214328106
H         4.31728270792818   -1.80208694493462   -3.28337498082955
H         2.54919165937574   -2.09508227447931   -2.84946445523393
H         3.72939715723410   -1.39492966866037   -1.66132769449839
H         2.76225549012199   -0.13596457409309   -4.29084528792721
H         5.30674599836947    3.06153543575746   -1.87067603254291
H         3.87427758557505    2.94497582294052   -0.65001893983086
H         4.83198740829261    5.44938444795612   -2.29476228255235
H         2.36148749320086    4.19400391987467   -4.19513472344107
H         1.49963028112764    2.98250562446400   -1.80289995158709
H        -0.89840908617609    3.43758268255341   -2.83051365348936
H         0.07559018820430    3.77868117307472   -4.30684281757852
H         0.99708142223103    5.50640481795287   -3.14936055878676
H         1.27089400518778    1.20068066113359   -4.22544036030252
H        -0.07310832451830    1.28276755034403   -3.04883542361310
H         1.79845121592471   -1.33103759972286   -1.07355427930959
H         0.39567284890325   -1.36246103550802   -2.12514947298444
H         0.00658691884575   -0.80529927213267    0.28724130178808
H        -0.61000764883709    0.35030233726486   -0.78829085002621
H         2.14323485333672    1.59286839679672   -0.57857871009505
