35
 energy: -49.715644813819 gnorm: 0.107638518606 xtb: 6.4.1 (79825abcba525fcdf90b791dcacef51065a7a4e7)
C         3.51641387750389   -1.41976444115283   -2.61221662015699
C         3.05978034402493   -0.08944357136573   -3.19292019244902
N         4.15544382860349    0.91639323923074   -3.07589095699989
C         3.83060319709220    1.64712363842414   -2.04859349332931
C         4.50090010416014    2.96503945999884   -1.82286156784328
C         3.86200850076134    3.75069274376024   -2.97433394292481
N         4.53827334623548    4.27551346572774   -3.94740838675840
N         2.48767916126833    3.92143444771795   -2.98304974043304
C         1.34639161774348    3.08410452580436   -2.56561913851039
C         0.09220519036647    3.97538218488210   -2.75867965984719
O        -1.05612063740192    3.36588872947066   -2.16850047107436
C         1.20215800762002    1.71755733938812   -3.27132232768840
C         1.90309291276727    0.63078885830860   -2.40669742423597
C         0.77191178400539   -0.20142659727037   -1.72688624038561
N         0.07247530068581    0.64420955019745   -0.74699334382947
N         2.68108283277267    1.31442464968859   -1.35458966652120
H         4.07431764943158   -1.15192307422789   -1.70707460530309
H         4.25817527720199   -1.83615220157359   -3.30182037550350
H         2.73111201813199   -2.12979618402963   -2.34481509481286
H         2.80663877144400   -0.30862038131134   -4.23914927077842
H         5.57836702064293    2.84668413975970   -1.96330444259881
H         4.21932705866417    3.34533108628926   -0.83895664262112
H         5.50671308819543    3.96068479077937   -3.80882648664944
H         2.17530447682600    4.59588769240506   -3.68550292288777
H         1.41619872182144    2.91333013489090   -1.48278814590329
H        -0.10040632312814    4.03978478943357   -3.83449595610601
H         0.34276331493996    5.02775433306954   -2.57523263100416
H        -1.44588229058711    3.84472871174643   -1.41241490491271
H         1.52206444777969    1.85092481692943   -4.31340830553702
H         0.15221835648517    1.46999606754657   -3.47811936073673
H         1.18850982797988   -1.03268428515246   -1.15864325923472
H         0.04829073523687   -0.63878707275197   -2.42600646743388
H        -0.46148571685247    0.01896830225022   -0.14836528477274
H        -0.58237797360901    1.28528519687773   -1.19775302478366
H         2.30378852977435    1.66090727292455   -0.47490093015132
