35
 energy: -49.716522992657 gnorm: 0.119651447670 xtb: 6.4.1 (79825abcba525fcdf90b791dcacef51065a7a4e7)
C         3.70534506583162   -1.43874392204814   -2.67164688760617
C         3.13320073181242   -0.09485368497183   -3.09837200009352
N         4.17497766718835    0.95927604917281   -2.92692720604808
C         3.71208829621561    1.73115723988380   -1.98630970553664
C         4.27742284491177    3.07366489860816   -1.64686165615913
C         3.62482974546525    3.87622668942297   -2.77882410190552
N         4.17481164710400    4.66140542516884   -3.65098180264501
N         2.29029484438432    3.70652653046460   -3.10780474731906
C         1.11731397714361    2.97948283499769   -2.58489912502178
C        -0.14809124179216    3.78511230637058   -2.97776371629912
O         0.01784126645931    5.16276541268844   -2.64163238704720
C         1.06459015612567    1.51179747888098   -3.06384735143662
C         1.91333146562052    0.46942804109751   -2.28086854443311
C         0.89122378775231   -0.60097884391759   -1.78708566590037
N        -0.07855135543028   -0.09651964001705   -0.80242377370991
N         2.71266412294617    1.13859444629099   -1.23547839817569
H         4.78414043935593   -1.38931256251374   -2.86147513382861
H         3.09779759499621   -2.19494976063762   -3.17976191506317
H         3.57326282656164   -1.76557600411448   -1.63816600691528
H         2.94183969373408   -0.08174141676736   -4.18000198994589
H         5.36793728855114    3.13253194467033   -1.69135936959512
H         4.01068006554862    3.28018236036718   -0.60851064863303
H         5.17741164330100    4.79720686386942   -3.47056899792556
H         2.16230589717741    4.03545495442411   -4.06766437980641
H         1.22938610647289    3.10510230442206   -1.49944094530968
H        -1.11292986622302    3.53149982854875   -2.52677067878181
H        -0.23105417930525    3.55793693745849   -4.04801033722514
H         0.90152776627776    5.36859383193322   -3.00163251665254
H         1.34821897815841    1.63309816513540   -4.11784499792906
H         0.00241801123677    1.23731531073300   -3.01023073781949
H         1.33633731409108   -1.50502444498254   -1.37233411298567
H         0.39289914752657   -0.93666931311019   -2.70505362083085
H        -0.00649044613803   -0.66502484193436    0.03781761793833
H        -1.05862104978958   -0.04679628182461   -1.08524184502143
H         2.11805045969247    1.63562686542658   -0.57544290758033
