35
 energy: -49.715725470416 gnorm: 0.117649862570 xtb: 6.4.1 (79825abcba525fcdf90b791dcacef51065a7a4e7)
C         3.64530899868224   -1.38854863292891   -2.76824575422871
C         3.12115945496042    0.02584825729756   -2.96882764326007
N         4.12918042126790    1.07203128091420   -2.62930330132057
C         3.59355278678630    1.81325416922715   -1.70273972764133
C         3.91614005076516    3.26951924196431   -1.59145464450084
C         3.62213432497880    3.88237520523544   -2.96596923321242
N         4.41822330872038    4.69058281338200   -3.59261711560152
N         2.40743274069873    3.47076218761978   -3.48854420099429
C         1.25733481387995    2.94428493767002   -2.72827884238986
C         0.04033335022135    3.85664283273239   -3.03017670815217
O         0.34714567315951    5.24730647982881   -2.92835935786597
C         0.93624801283481    1.45826405919580   -3.00198801909545
C         1.80360774372498    0.43573237146629   -2.21327536011352
C         1.03219534224839   -0.80872562678475   -1.67425432151761
N        -0.06311706846260   -0.38775937705389   -0.78679722945265
N         2.49026984532942    1.19095449328924   -1.14664908818896
H         4.44047141915850   -1.47182701710191   -3.51861840361642
H         2.79985495155403   -2.00596808085477   -3.08940421519813
H         3.95925467161931   -1.62586761698546   -1.74968526572058
H         3.03716304320874    0.31506911657251   -4.02524153340624
H         4.97462396458649    3.41325349431237   -1.35989603355404
H         3.35411734429003    3.76146124787565   -0.79515223983951
H         5.25436499803449    4.60731106540998   -3.00089888390057
H         2.04900723313722    3.88676951306011   -4.35131569042525
H         1.45364984220076    3.10127536297651   -1.65899202677204
H        -0.75220345544457    3.68727725939084   -2.29408683394682
H        -0.17461777259441    3.67917609858258   -4.09141226260237
H         0.96994675260869    5.52274907389101   -3.62772868265809
H         0.97848226081289    1.34565672739512   -4.09359511216784
H        -0.09158016993191    1.31220987882114   -2.64329279829709
H         1.64321395845128   -1.37163760243149   -0.96910915772493
H         0.71286547809315   -1.46691676692722   -2.49186886525726
H        -0.23284600143967   -1.05891680716130   -0.04172251711271
H        -0.97412956038608   -0.23744913330827   -1.22321234007322
H         1.90944375163389    1.57313640118642   -0.40312269746319
