35
 energy: -49.717608438188 gnorm: 0.121556804210 xtb: 6.4.1 (79825abcba525fcdf90b791dcacef51065a7a4e7)
C         3.50627599696280   -1.25352660684609   -2.91949426808533
C         3.05940704370433    0.18965924759383   -3.10117297284385
N         4.12336354610186    1.15978878369681   -2.71036965485603
C         3.66947347064175    1.83927816137223   -1.69690707160847
C         4.18759546816543    3.20028973869503   -1.35580292170673
C         3.57700180169496    3.86013647706347   -2.59801863722177
N         4.27933181058240    4.35774745043858   -3.56691528745221
N         2.41270072146121    3.38478317616735   -3.17806355128574
C         1.10952298989957    2.99217545041388   -2.60754278192089
C        -0.00129783952983    3.84739056850987   -3.27035196633559
O         0.35942945053993    5.22876773351610   -3.28125644550265
C         0.76794683476141    1.49680811183401   -2.79050122806700
C         1.86016029911640    0.58424834751976   -2.16260306232070
C         1.05539491371172   -0.68387718824447   -1.74010236017461
N        -0.12221027800210   -0.45429428952148   -0.88860975052283
N         2.55149477047933    1.30920216699595   -1.07814212451931
H         4.35648542993643   -1.48257082202717   -3.57291629421515
H         2.76938274180702   -1.97620395077525   -3.28537383870527
H         3.71692119974430   -1.54963015899256   -1.88978608509439
H         2.89142858633105    0.45418014769339   -4.15403874566489
H         5.27990008039256    3.21372873125962   -1.31896311205015
H         3.74789875205964    3.56326289732155   -0.42473295180284
H         5.29266774474036    4.42152361437915   -3.40791700058003
H         2.47007880979404    3.42947747721942   -4.19816931643875
H         1.09672811794338    3.15563417826992   -1.52141322198658
H        -0.93335319328657    3.83503412473592   -2.69611531888871
H        -0.18850065795866    3.52786697118647   -4.30320195640680
H         1.18148075787635    5.30343435755008   -3.80233590623217
H         0.73370385641270    1.26683767458243   -3.86381908516192
H        -0.18580349113585    1.30540402823496   -2.28045254568657
H         1.69755421132820   -1.39727673808392   -1.22421877617838
H         0.84679927145310   -1.16920506498026   -2.70167680697858
H         0.21612446424550   -0.27252294790369    0.05313613800108
H        -0.69542620520002   -1.29951058628132   -0.89390081254369
H         1.97876493496400    1.93624927365114   -0.51685259106623
