35
 energy: -49.723946058678 gnorm: 0.092031099539 xtb: 6.4.1 (79825abcba525fcdf90b791dcacef51065a7a4e7)
C         3.37464653914369   -1.51194216118374   -2.37904269465135
C         2.90378997947814   -0.28545175701554   -3.14683163692869
N         4.04850286922752    0.65558639623619   -3.31992587691788
C         3.88941676398363    1.50445254548897   -2.34578713494834
C         4.66374856301355    2.77901638140966   -2.23154088411931
C         3.83350149018636    3.96576043616508   -2.73517816308262
N         4.34395340640076    5.14749899667727   -2.88543668945204
N         2.54247864058891    3.88448140934355   -3.22981293572077
C         1.37461561354166    3.13227195975265   -2.73163236887631
C         0.01513950002363    3.86128962225674   -2.88971391221655
O        -1.02693878612843    3.11433325865880   -2.26156186539937
C         1.35868999826073    1.73291544086082   -3.38571132899848
C         1.85233953466338    0.62495766146720   -2.41170340531250
C         0.63457046584088   -0.05495785093143   -1.71238231999341
N        -0.00319453437321    0.84166349232551   -0.73574116062702
N         2.85232944381572    1.19183181127182   -1.48529590829710
H         3.89769760020609   -1.07015575024949   -1.52258484688973
H         4.03586441192802   -2.16435629277898   -2.95894683408596
H         2.49298615897597   -2.06498152556353   -2.04863369114000
H         2.59482956479210   -0.56463490108554   -4.16335250114133
H         5.47336400682453    2.66668097767232   -2.95719281836420
H         5.09302399679864    2.94955943909268   -1.24229285942577
H         5.28050604525195    5.33252337368160   -2.50486777859446
H         2.33355646522958    4.78205542408117   -3.67322923321637
H         1.48468553435829    2.91825686562205   -1.65988517317637
H        -0.17624573882157    3.97014809660703   -3.96216396589911
H        -0.00037778787447    4.87886494912082   -2.47956882236325
H        -0.77568857321867    2.91291810296613   -1.34005628965312
H         2.11488052103892    1.74987885311422   -4.18192635449198
H         0.41417108566703    1.51926444014528   -3.90403762870128
H         0.84319994568367   -1.04994367495809   -1.32005552548570
H        -0.07344198419601   -0.33320584773078   -2.50293727667055
H         0.12375855350853    0.38913642290024    0.16620047056237
H        -1.01517329192483    0.83652079099635   -0.87310066670188
H         2.55918433710280    1.77312976872328   -0.70272826679264
