35
 energy: -49.724346822409 gnorm: 0.111644393193 xtb: 6.4.1 (79825abcba525fcdf90b791dcacef51065a7a4e7)
C         3.49178253232697   -1.57805604235544   -3.16570573589679
C         3.00587709555271   -0.14993009280615   -3.36529682310722
N         4.09504586110905    0.85082084343147   -3.17012780267945
C         3.82484848214380    1.56612455383848   -2.11648537153289
C         4.37391941672460    2.87673436032428   -1.64960427864510
C         3.62117957938227    3.92287100181727   -2.48044905320476
N         4.03892459181666    5.11250050801562   -2.78030827035544
N         2.33434674073166    3.71191880711444   -2.94689332269981
C         1.14285535915222    2.98315304001523   -2.47028476549653
C        -0.03788334110583    3.76382683220340   -3.10355909983904
O         0.02705646761035    5.18421104026451   -3.23293248358407
C         1.09971726248926    1.53870422590876   -3.01615861251469
C         1.90026584257297    0.36960043955647   -2.37407607560456
C         0.97646725411762   -0.63221099888167   -1.61429548590704
N         0.17042038211756    0.08228436917795   -0.61215439051299
N         2.73724046234261    1.09869319411662   -1.40070349197536
H         3.45406828212631   -1.74634658069209   -2.08286982474699
H         4.52147218403222   -1.66425212642056   -3.52826818940476
H         2.78754535257888   -2.31871825878340   -3.55017567869283
H         2.62827650490994   -0.07699909597895   -4.39428335082233
H         5.45060969823373    2.91859318479297   -1.83305183883584
H         4.10348252948113    3.16390314341843   -0.63158071458317
H         5.02582148869286    5.27833205130753   -2.54635960047286
H         2.06950238005397    4.52902991600254   -3.50195413497993
H         1.10058838757643    3.06964573667875   -1.37607619550048
H        -0.88885233728958    3.42511129996356   -2.50376651043785
H        -0.12007670327120    3.54850262396037   -4.17631213244083
H         0.19210471111769    5.53980853046220   -2.33896561474384
H         1.51355695237189    1.60552756950752   -4.03121603565036
H         0.03948351242558    1.25372273105399   -3.04954745421104
H         1.61516543891453   -1.33365273694861   -1.07811690154438
H         0.40655536562904   -1.22706654247284   -2.33888365921047
H        -0.21025729353012   -0.55178231459318    0.08601499023300
H        -0.66670511269318    0.52619348913951   -0.99315397321090
H         2.39725315266707    1.50671203885892   -0.53226654900327
