35
 energy: -49.702171148858 gnorm: 0.128223805162 xtb: 6.4.1 (79825abcba525fcdf90b791dcacef51065a7a4e7)
C         3.76979866410305   -1.42078140094060   -2.68609767195962
C         3.12931866691218   -0.09120076561042   -3.05688753045985
N         4.05222289690578    1.03271706590381   -2.72381324218310
C         3.50483969678791    1.69237008559272   -1.74398778383547
C         3.95471201886947    3.11321130263874   -1.61757568173323
C         3.56676605935894    3.90770523290665   -2.87041226530821
N         4.37842950006143    4.75956470346787   -3.41371945955597
N         2.47189852487018    3.46113080350561   -3.59141588253395
C         1.30528017676453    2.95145725455367   -2.84499676708012
C         0.03434173682381    3.82310214852394   -3.01699235286602
O         0.24941951245421    5.21995461590839   -2.81453078940573
C         1.05639509017013    1.47506027026149   -3.22523312832032
C         1.77849893437266    0.37327702826276   -2.39783274206241
C         0.83154036202592   -0.70666135020249   -1.78848956252452
N         0.03419001311696   -0.05380541194252   -0.73848312258896
N         2.35424617637401    1.10337847510716   -1.25108780928388
H         4.85965507145290   -1.44474683777574   -2.80406521357349
H         3.47137870027336   -2.32997557958534   -3.21850122096471
H         3.60055705991732   -1.86277743068671   -1.70205273288329
H         3.07619183874262   -0.05614156791391   -4.15354737025122
H         5.04567943703354    3.16717663640092   -1.65688179706145
H         3.50711757574064    3.52928717033822   -0.71285800560219
H         5.07146392919469    5.02419824218787   -2.70247411651668
H         2.18926096988657    4.13656658251005   -4.30542437081412
H         1.48128038964304    3.13461591146752   -1.77633558549424
H        -0.73024249433493    3.52518973616499   -2.29222567358926
H        -0.41661417090440    3.69802633769169   -4.00942075624673
H         0.65037469018450    5.54709574554974   -1.98683465941573
H         1.35274427017957    1.30946961287255   -4.26965981770511
H        -0.02002263965398    1.25732788147555   -3.20673058348781
H         1.47634629032345   -1.46729343980892   -1.34904957733569
H         0.08829524041530   -0.93258621124240   -2.56323168566394
H         0.59175016161320    0.11685645797246    0.09482219087661
H        -0.79104451211809   -0.61505509722722   -0.52173014066593
H         1.62612943126960    1.52035222979498   -0.67469179616809
