35
 energy: -49.721421816638 gnorm: 0.098724969844 xtb: 6.4.1 (79825abcba525fcdf90b791dcacef51065a7a4e7)
C         3.52991725711805   -1.43363716533062   -2.32345223187188
C         2.98498647414799   -0.20469702028826   -3.03636247911269
N         4.03102745398100    0.85844450507202   -2.99880743661679
C         3.75559615986734    1.69590992153356   -2.04088379573234
C         4.31692826833300    3.08156946564528   -2.08570358687654
C         3.72891791950589    3.83847400101320   -3.28264199049550
N         4.53898557598548    4.65003650222517   -3.88662999379286
N         2.41376018978067    3.72761746444373   -3.70226182935202
C         1.31323809928227    3.10243836554263   -2.94337501847787
C        -0.00980690201933    3.87708741819870   -3.17597466246696
O        -0.85787880868473    3.69556183024892   -2.04183690113667
C         1.09644189629270    1.58744504182823   -3.15329444653092
C         1.86290624125329    0.57405064868281   -2.25578906105066
C         0.85873101978847   -0.28290368572952   -1.42418940940297
N         0.34131125530521    0.62582774293082   -0.38930488919169
N         2.69881243463216    1.26900685576519   -1.25686280306249
H         3.85803538764996   -1.19958260637415   -1.30372940679701
H         4.42233991317385   -1.72030049001927   -2.88962184217736
H         2.84218730739608   -2.26959459818490   -2.18009828514426
H         2.76532989048671   -0.41628437112950   -4.09168053610822
H         5.40774035530769    3.10513032891280   -2.15082664151057
H         4.11674333542342    3.72553803619857   -1.22709746554625
H         5.52444446253343    4.50626534493119   -3.63286198194235
H         2.28660903836555    4.13089333047949   -4.63344749811556
H         1.58296299629368    3.29542362122491   -1.89620499180364
H        -0.57767686436315    3.48368949643522   -4.02532110058509
H         0.27008191598753    4.92867947422792   -3.31645856911680
H        -0.31576092376481    3.73194900405100   -1.23087979178202
H         1.25641477009457    1.14384335405877   -4.14510916205600
H         0.03666375901579    1.40019365174081   -2.93367636720684
H         1.40676774006199   -1.10020077305702   -0.95608195036624
H         0.01990783513898   -0.68331197033555   -2.00705267140067
H        -0.04704894893695    0.05016420556337    0.35378621277695
H        -0.49514274506880    1.12004484511740   -0.70408933858199
H         2.21321782683815    1.67822359098360   -0.46125421894438
