35
 energy: -49.715707030246 gnorm: 0.123061021696 xtb: 6.4.1 (79825abcba525fcdf90b791dcacef51065a7a4e7)
C         3.60348351503047   -1.43873469883677   -2.63178774834651
C         3.04022538313217   -0.11128978940260   -3.11770414084591
N         4.12041653610400    0.90429719992489   -2.95141479088190
C         3.77753715727511    1.60732918993730   -1.91073800622975
C         4.29357784091280    2.98753172994135   -1.65403215467968
C         3.63875243786912    3.84027874730876   -2.74735204809698
N         4.20875619709067    4.78639387031253   -3.42529503037828
N         2.33884228413133    3.55924727512360   -3.13369999486345
C         1.11441446033952    2.95801911302269   -2.57048761606423
C        -0.02941094777665    3.77950469311529   -3.21968460164575
O         0.15974307691657    5.17259292570714   -2.97074305426482
C         1.03946444829212    1.51195488366090   -3.10858825837067
C         1.85188020082506    0.48083668118901   -2.27388614858588
C         0.92934206128694   -0.63440436447868   -1.69125645333849
N        -0.12943804038375    0.10800894258200   -0.98960898875175
N         2.62990855818862    1.20656367200539   -1.25038766043138
H         4.67749870069654   -1.56932089258374   -2.80987847792037
H         3.09560748918772   -2.22163751384317   -3.20473382619649
H         3.38296296267457   -1.59340659325035   -1.57358410136978
H         2.92931522436622   -0.09233462656922   -4.21043194753102
H         5.38645303992713    2.98315585222025   -1.67051773405732
H         3.90124891309783    3.23411380407196   -0.66547295292946
H         5.18365520730486    4.97663185320079   -3.16151673039553
H         2.08810036279871    4.24963136310604   -3.84532061447107
H         1.13146698819576    3.04338041275797   -1.47550700399327
H        -0.99051696463719    3.40496589988510   -2.85277383062673
H         0.05486064826858    3.73452520691813   -4.31275114981225
H        -0.06167254376129    5.50909615134940   -2.08158167301211
H         1.58370795839261    1.46625912793174   -4.06136374425579
H         0.10702101698932    0.97104103914662   -3.31926890266506
H         1.40738507153984   -1.29021371865520   -0.96404786589859
H         0.45747275590124   -1.09934644721331   -2.56581287416523
H         0.23178308863151    0.26389894470885   -0.05173152071801
H        -0.90052707899365   -0.55004986297752   -0.86561144239671
H         2.26792641109965    1.52076645705636   -0.35233476450612
