35
 energy: -49.730790310747 gnorm: 0.114135148140 xtb: 6.4.1 (79825abcba525fcdf90b791dcacef51065a7a4e7)
C         3.54575502716575   -1.38761014095773   -2.40722372106617
C         2.89049686092505   -0.14493368011769   -2.99192570528624
N         3.94637283910328    0.89332530275158   -3.17365689499810
C         3.78715957769997    1.66286171588145   -2.13572949997522
C         4.42292327321916    3.01544272835462   -2.07670347541206
C         3.84003876867694    3.84062638507895   -3.23023708688799
N         4.46383887325478    4.63833942850701   -4.03904617972333
N         2.51087420451611    3.64103786865617   -3.56414702275281
C         1.36487716963351    3.08419933445398   -2.81948022676658
C         0.11522844408505    3.97003018454131   -3.06096232941840
O        -1.00613999873830    3.43496472636303   -2.35762476232599
C         1.11025028307136    1.58952090920559   -3.11506966434272
C         1.80406170707689    0.60192163576931   -2.13362934112989
C         0.83161450810277   -0.22977241435021   -1.24092108045779
N         0.19519892475049    0.67435443009869   -0.27033783301803
N         2.78952866879698    1.27076941156987   -1.26124497105625
H         3.57165650655978   -1.30254981500190   -1.31435065410047
H         4.58616009947490   -1.55515965376674   -2.70492580159223
H         3.06359215205494   -2.31994979844638   -2.70823766363795
H         2.58414878009234   -0.39158206001721   -4.01761077478053
H         5.51446937101678    3.00968047085689   -2.13292669297416
H         4.11523049246849    3.57430606493698   -1.19071761944103
H         5.48980501063626    4.66252259342677   -3.98421714643341
H         2.19647796778860    4.11190931515770   -4.41581637709646
H         1.65947279347008    3.27374576492532   -1.77840123421082
H        -0.18726851416944    3.96255756490733   -4.11313500763017
H         0.20429534271354    4.99577480051002   -2.68170726995354
H        -0.65948752259048    3.38383384604109   -1.44653477962522
H         1.46898532051067    1.41002651231432   -4.13740089919884
H         0.02579775417445    1.41538186082381   -3.10712064159741
H         1.39677427868451   -1.01751608897178   -0.74342966894134
H         0.16711465965213   -0.79857502867569   -1.90317801810052
H        -0.39428324073903    1.24063449958802   -0.87551070221105
H        -0.45978144765370    0.09803012790257    0.26055396282728
H         2.41278529134940    1.74584129450240   -0.44355027436129
