35
 energy: -49.725913819111 gnorm: 0.110673272882 xtb: 6.4.1 (79825abcba525fcdf90b791dcacef51065a7a4e7)
C         3.60332109885873   -1.36085886160538   -2.94049120383515
C         3.08225927739361    0.03160424972713   -3.26456757820424
N         4.06871982975197    1.10995665971700   -2.96467817944720
C         3.74511322006825    1.70683897320224   -1.85389526851862
C         4.14221690504367    3.11138445453589   -1.52722175802063
C         3.65635722879313    3.80741313247662   -2.80425215596660
N         4.25354959157464    4.58491627008310   -3.65189297331043
N         2.29425008055986    3.75143799207527   -3.04826186491072
C         1.17501571740979    2.97741517773265   -2.47720136977808
C        -0.05362403868322    3.70547010070281   -3.08136378942997
O        -0.02845464342451    5.11708078292519   -2.86883674128856
C         1.04806117490923    1.53436920521823   -3.01364558764277
C         1.92115187632923    0.46550569269952   -2.29587466989925
C         1.07038958249198   -0.69128209296838   -1.68567627065149
N         0.17998563018533   -0.13124750064521   -0.65706359775337
N         2.68714610966455    1.09747019052747   -1.20343215805215
H         4.01058831932197   -1.31147274358040   -1.92364701479544
H         4.38606306009891   -1.59656088003315   -3.66912119203562
H         2.82805138801596   -2.12850892725551   -2.98541240114959
H         2.73593174616149    0.17816391731974   -4.29669737665458
H         5.22619337498142    3.18963475973115   -1.41086441276125
H         3.64072750554095    3.43934090358498   -0.61457344827047
H         5.25783867876033    4.68191556777769   -3.45646490442898
H         1.99228578087394    4.33228248487661   -3.83397353598329
H         1.14250627034275    2.94256951948643   -1.37980044487614
H        -0.98927936186414    3.38631955701359   -2.61091757208476
H        -0.00414869896266    3.59072723824812   -4.17145809764296
H         0.26156299744066    5.31024300594605   -1.95700047060674
H         1.28290159459731    1.49670599676280   -4.08579374181373
H        -0.03609711336321    1.35955993183730   -2.99202645849066
H         1.72054413633693   -1.36909665878764   -1.13312778486991
H         0.65450980959618   -1.24210164721980   -2.53850833955366
H        -0.52827342285370   -0.78608511482950   -0.33464562324532
H        -0.35774641573255    0.60279273449215   -1.12077068862220
H         2.06676023261554    1.30917286529495   -0.42461458475575
