35
 energy: -49.719914108321 gnorm: 0.106361685861 xtb: 6.4.1 (79825abcba525fcdf90b791dcacef51065a7a4e7)
C         3.77946658726556   -1.27341065732519   -3.08543684796705
C         2.99256001410958    0.02245828254911   -3.21576789452843
N         3.92705551969236    1.17532674770216   -3.06248885274353
C         3.59540469335126    1.77940350490512   -1.95798559988147
C         4.13756739855942    3.14097398879142   -1.65908699926142
C         3.60052816271687    3.98930772921557   -2.81806971554267
N         4.37888198464054    4.78922502936084   -3.47681279838320
N         2.33950153965532    3.64148554384853   -3.27286795134640
C         1.24157590903437    2.94228961848585   -2.57746063002082
C         0.04116282711572    3.83775964460602   -2.97967165908011
O         0.21577662430777    5.07318638471102   -2.28564229429492
C         0.94165488455232    1.44309744196150   -2.79823592809597
C         1.86993798873716    0.36533989465530   -2.16840987557493
C         0.99078763012906   -0.78140330401639   -1.57987674155331
N        -0.26392312956041   -0.19649188153019   -1.08179892043684
N         2.68904484548467    1.08740057817704   -1.17480568541623
H         3.81592780933818   -1.55992797159273   -2.02767690797590
H         4.79320602517151   -1.19297566930182   -3.49164448547675
H         3.25379844879996   -2.12473563575621   -3.52277705434324
H         2.56831110451314    0.19318988298517   -4.21455616604450
H         5.22799580009057    3.07259244345961   -1.69002262510855
H         3.82818870838482    3.52437601796931   -0.68478637051885
H         5.36705705772784    4.93617559667035   -3.23574618250636
H         2.34359895757850    3.60323219628337   -4.29483932684290
H         1.42815609563205    3.08319607133924   -1.50419780012562
H        -0.92711342447644    3.46928099790256   -2.62570529894765
H        -0.03683209163321    3.94980876412640   -4.06837782704818
H         1.07869378685458    5.44424084652276   -2.55127327723158
H         0.87173482291566    1.34127892251488   -3.88948034980753
H        -0.03215878889994    1.33449537205830   -2.30193218432159
H         1.53614693559824   -1.29402354705040   -0.78788742580554
H         0.78182756473983   -1.58833092644727   -2.29323794768854
H        -0.62359560427038   -0.61557566964548   -0.22774913997274
H        -0.98673967357735   -0.35503302843140   -1.78564267773484
H         2.07172016056276    1.50997806484610   -0.48444926074125
