35
 energy: -49.720026030551 gnorm: 0.112469850170 xtb: 6.4.1 (79825abcba525fcdf90b791dcacef51065a7a4e7)
C         3.45164623723210   -1.41269066456450   -2.54470268768588
C         2.96621736068257   -0.11431831798953   -3.17245464004159
N         4.07436081488582    0.87995155364164   -3.07587554851167
C         3.78770637204783    1.69174484384268   -2.09932584581731
C         4.47904889489009    2.99828250244332   -1.87094059555042
C         3.83499359656418    3.83898036787373   -2.97987796265453
N         4.61051800381377    4.44721289086054   -3.82145976026092
N         2.51029603190321    3.77223790356462   -3.37828938606105
C         1.36474268661943    3.12776202551017   -2.70727123070076
C         0.12168700667137    4.05261196190658   -2.77127911499906
O        -0.90338583010002    3.51339094430222   -1.93646635962585
C         1.09239800006803    1.69580291035038   -3.21873288592742
C         1.80367402580283    0.59309009247587   -2.38323149093878
C         0.67934514851393   -0.27458151291088   -1.73722286072811
N        -0.02485895593178    0.62913102549042   -0.81423736998107
N         2.67820636618079    1.25725834211624   -1.39650422985981
H         3.93518065705221   -1.08512462938195   -1.61670880611285
H         4.28673714986827   -1.77310550122401   -3.15451118087278
H         2.77157598134236   -2.24242346727465   -2.34124363121889
H         2.73938539496089   -0.38176422852356   -4.21348027334364
H         5.54515294555317    2.86754753773233   -2.07341941016712
H         4.33982924315246    3.45370619835491   -0.88850426170268
H         5.60238983414958    4.30895940513287   -3.59064854733691
H         2.34568642586744    4.22470122378304   -4.28055665147824
H         1.56571079190442    3.05639846454112   -1.62973749060798
H        -0.31449418417581    3.88731774206580   -3.76175949801905
H         0.38561841454325    5.09193765460319   -2.53876751543974
H        -0.41473759477681    3.33724454511161   -1.10999034010536
H         1.39807151860125    1.56267692708305   -4.26511302253304
H         0.00393300776731    1.58457003333761   -3.12231663355067
H         1.07463221854787   -1.22715301233711   -1.38537198973813
H        -0.04059748679080   -0.42657609798936   -2.55101704114902
H         0.38531440537791    0.69848930552451    0.11384871564560
H        -0.97945379471336    0.31053501105859   -0.64033981123132
H         2.30881449002514    1.81591034853297   -0.62988107203930
