35
 energy: -49.714919705361 gnorm: 0.113696950513 xtb: 6.4.1 (79825abcba525fcdf90b791dcacef51065a7a4e7)
C         3.66902464064584   -1.36721477195760   -2.26688376684303
C         3.14195890527283   -0.18829500699466   -3.07176534465183
N         4.06487682295850    0.98383410335031   -3.05700447800410
C         3.68050850968173    1.69117620611246   -2.03389325653272
C         4.10516338763498    3.09776494467455   -1.75401596991076
C         3.63744055621315    3.89858565794119   -2.97518087964287
N         4.39188358790795    4.64708653656850   -3.71694024182871
N         2.28505560822254    3.82486147843484   -3.26436861492483
C         1.25920403408399    2.96376475258797   -2.64465258754385
C        -0.09827469166007    3.71333309294723   -2.63911700254508
O         0.03075555051331    4.99836219162862   -2.03043205449433
C         1.12716284553085    1.56132108829191   -3.27867817434399
C         1.88892465733396    0.50816884014925   -2.42396126574625
C         0.89698596911950   -0.58574304149512   -1.92026391672875
N        -0.36187381864603    0.02685188617190   -1.46804552635444
N         2.62971028425786    1.14636406319406   -1.31784171244420
H         3.69850836736962   -1.13931494671266   -1.19475035000850
H         4.72275276082242   -1.50495614549407   -2.53113071011588
H         3.08884621526345   -2.28848590776866   -2.35055069956095
H         3.16491339208094   -0.51229102248843   -4.12115283059805
H         5.18878013438088    3.22097228812559   -1.82655456566275
H         3.82118559298759    3.48291936088793   -0.77269712395502
H         5.34764172953118    4.72559101027839   -3.34739865166682
H         2.02371985409487    4.29146822247702   -4.13608379958553
H         1.48727921422470    2.81243121772074   -1.58086700552876
H        -0.80504654776788    3.06331142212462   -2.11321495158547
H        -0.54335807797859    3.69570649865543   -3.64186792332940
H         0.79814421171071    5.53470573904676   -2.30668827673761
H         1.59209224108559    1.61967590689763   -4.27190805035507
H         0.11245730269654    1.17531875003293   -3.44541066790329
H         1.37108094555007   -1.19911476467128   -1.15446208373524
H         0.67003790430200   -1.23769145494661   -2.77298811395277
H        -0.16725164746098    0.67178343346177   -0.70608617729828
H        -0.99622083575077   -0.57690314947813   -0.94261350956289
H         2.38502534596667    1.25232579226745   -0.33541875706774
