35
 energy: -49.719112592754 gnorm: 0.127195959588 xtb: 6.4.1 (79825abcba525fcdf90b791dcacef51065a7a4e7)
C         3.64971822752794   -1.44191130490183   -2.49451721307121
C         3.01473071316004   -0.21242617452466   -3.12747979416799
N         4.05350574475383    0.85840193512550   -3.13995412024311
C         3.79544869165590    1.56418873367231   -2.07689251541826
C         4.38865554945214    2.89880720968133   -1.75431836196006
C         3.62705537988131    3.88110613295237   -2.65230287739101
N         4.22845942975697    4.73956916218382   -3.41453592162853
N         2.27522763324453    3.85001663834621   -2.95164386824097
C         1.15946221854582    2.97474293448584   -2.54314603721757
C        -0.11955747298072    3.61966460747100   -3.13712964526916
O        -0.28523230599010    4.92289579694505   -2.57803548182879
C         1.23730263752336    1.60390412625769   -3.25096904308492
C         1.82400874740208    0.47167611116553   -2.36002157801492
C         0.84681179153235   -0.53405930970432   -1.67600480121481
N         0.13604028966392    0.21471345090835   -0.62784202263758
N         2.68347574859040    1.14690841406182   -1.36758277523718
H         4.63981862006287   -1.53019457198569   -2.95731842727790
H         3.11225908764501   -2.33743759440781   -2.82362573846036
H         3.56174556843339   -1.38739259904163   -1.40748630634512
H         2.71595590782274   -0.48346707824861   -4.14923557349049
H         5.45453497263928    3.01394062548923   -1.96718565021008
H         4.19089985984541    3.03260203631861   -0.68897070385084
H         5.23292058934023    4.89090363854926   -3.25848074335698
H         2.09487743193364    4.29240711780950   -3.85589498024694
H         1.15477028472076    3.07596906018454   -1.44939508190392
H        -0.98313422367583    3.02920744453407   -2.81429356239590
H        -0.05027810932428    3.64380182141038   -4.23190683763155
H         0.36164189698711    5.49395057053601   -3.03445357223098
H         1.85441039279100    1.80125741843500   -4.13770458261007
H         0.19132549608889    1.32539727926749   -3.43749154207853
H         1.40789744280703   -1.34767435820227   -1.21703115294066
H         0.23832838039145   -0.99265421145418   -2.46538390288729
H        -0.41826176802503   -0.59100530783142   -0.34862337129969
H        -0.50311479669430    0.85299100617595   -1.10436864969516
H         2.23430607699618    1.76546581495806   -0.69535748839167
