35
 energy: -49.724453081215 gnorm: 0.121056448600 xtb: 6.4.1 (79825abcba525fcdf90b791dcacef51065a7a4e7)
C         3.64005000066919   -1.46283917933859   -2.62416293865472
C         3.11149865060803   -0.09877599378040   -3.04302990535424
N         4.17881765917467    0.90759017308409   -2.77111212916621
C         3.67549658211989    1.69011971665084   -1.86053877407344
C         4.27353251628846    3.04122336333083   -1.62810189093247
C         3.78740839574998    3.76775097231241   -2.88792853316777
N         4.43632522998096    4.56210249739656   -3.68011374217682
N         2.44554892747589    3.64725142805291   -3.20871329860487
C         1.25333330976577    3.01674702463689   -2.60955298124018
C         0.00735396596998    3.73601197950674   -3.18819383130682
O        -0.38404113962731    4.93304774035296   -2.51561579761247
C         1.16448832098081    1.56992632699804   -3.14348928962547
C         1.84717201937593    0.46088480594943   -2.29265348670335
C         0.84631387051097   -0.58091724102462   -1.70339292556519
N        -0.06141638094821    0.06243145649202   -0.74077658782024
N         2.56308238958199    1.17672624355544   -1.21813018291845
H         4.69319827117606   -1.41578497765450   -2.92572936002723
H         2.99088340114890   -2.29188038312855   -2.92485461914461
H         3.66959030320597   -1.47516421904470   -1.53268543922426
H         2.96303714916245   -0.02797652522262   -4.12915192176734
H         5.36420512884423    3.08725757369435   -1.57350117271416
H         3.80426149395710    3.51880769919349   -0.76573774848304
H         5.42135301084763    4.62766142600158   -3.39442183767658
H         2.20113721927520    4.13395413367943   -4.07432810361880
H         1.13269925292170    3.16517757809192   -1.52789884522667
H        -0.87665547771419    3.15737514875343   -2.90125425709879
H         0.00940688136848    3.85126152537620   -4.27935497987364
H         0.31230386373306    5.60312760377527   -2.65332517509494
H         1.60060303649610    1.48787744323238   -4.14804996481411
H         0.10739965910264    1.28503549285980   -3.23195199237333
H         1.34913057388927   -1.43448768515733   -1.24948080501900
H         0.28069171468535   -0.89644639221278   -2.58894001209810
H        -0.68620844329357   -0.66920988725504   -0.41103068271185
H        -0.56063758350094    0.79392884790617   -1.24938728648276
H         1.91011710945552    1.65082467125386   -0.59754940106540
