35
 energy: -49.719329004628 gnorm: 0.116550601827 xtb: 6.4.1 (79825abcba525fcdf90b791dcacef51065a7a4e7)
C         3.70997218377569   -1.30537732348806   -2.39894590962132
C         3.05164753815452   -0.12383337538371   -3.09611660104687
N         4.06021479736036    0.97541656976833   -3.11410594357670
C         3.70977509264751    1.68935880039196   -2.08342321445981
C         4.28851209149699    3.04433030164428   -1.82599240997677
C         3.60051786967819    3.85601112187070   -2.93014836073370
N         4.11913992108486    4.84192356933416   -3.59245690924038
N         2.40531439129823    3.41238036116947   -3.47115689408602
C         1.26788006733275    2.95386680672287   -2.65023335672671
C         0.04498398105187    3.88639289881004   -2.84911033458763
O         0.06702789877549    5.08455372870319   -2.07298493939730
C         0.98095363215530    1.49518379480862   -3.06998162370484
C         1.86750572801136    0.49916578105914   -2.26877932569131
C         0.94614564495372   -0.63216500767217   -1.71607441822349
N        -0.42129805963862   -0.19634622073438   -1.39255992360208
N         2.68113899459158    1.23263101868471   -1.27903869477786
H         3.99654887981961   -1.01943928379730   -1.37993123443569
H         4.64832368060033   -1.43015175938167   -2.94946374506606
H         3.06398876183882   -2.18560817280953   -2.38323833856352
H         2.80587447866057   -0.46326929237734   -4.11154421742556
H         5.37007943908864    2.89293217941582   -1.87023945719256
H         3.99866196019899    3.42841921573246   -0.84597374378076
H         5.05616670366676    4.95210669089139   -3.18497922963531
H         2.16942124847435    4.10538943960456   -4.18529864797404
H         1.44001854809163    3.04925043741080   -1.56957144060094
H        -0.78605677407616    3.37486184444521   -2.35278903079982
H        -0.19159443614124    3.97037637132971   -3.91723801600199
H         0.74052961746155    5.73045167362360   -2.35947845648474
H         1.35985163729608    1.34876925432310   -4.09030965055243
H        -0.08212693959131    1.26170966380385   -2.92242019587813
H         1.39181217105217   -1.02799784170671   -0.80385676232951
H         0.99529433946610   -1.39778140969588   -2.50035537715862
H        -0.39080895328025    0.49044183482021   -0.64303399903757
H        -1.02699764869724   -0.98063673812967   -1.14555493046545
H         2.35497874646766    1.70355363364768   -0.43754905260706
