35
 energy: -49.711216691520 gnorm: 0.133672973094 xtb: 6.4.1 (79825abcba525fcdf90b791dcacef51065a7a4e7)
C         3.82776322415113   -1.31011836089573   -2.53537393527717
C         3.00282831327274   -0.13757782142029   -3.04538914431840
N         3.88940432541640    1.06222766376605   -3.06360389688595
C         3.62848862283107    1.73799849229831   -1.98189913270809
C         4.16409820819449    3.11886748995415   -1.77338510206682
C         3.70649357587851    3.86900248652994   -3.03005437538627
N         4.42478308997965    4.78302186164625   -3.60300598646065
N         2.44355288367595    3.61686157862237   -3.53938295095771
C         1.35834666782603    2.97484042366846   -2.77254315034701
C         0.15319106949669    3.89923005212546   -3.08517013120896
O        -0.21995279135470    4.61366232897410   -1.90669818017698
C         1.07566155232970    1.49181671588162   -3.09965371814393
C         1.79615401712562    0.43502168975843   -2.21420098555888
C         0.89330543222936   -0.67453219716087   -1.59126348487792
N        -0.39893266492006   -0.05160553538328   -1.26478983652022
N         2.63528059916262    1.14139171018144   -1.22603860038011
H         4.09768891410421   -0.96198157590623   -1.53127305099912
H         4.77543010586879   -1.46130664244427   -3.06283167039551
H         3.27724701622869   -2.25187243682242   -2.48660070407223
H         2.71311949190676   -0.38518342536109   -4.07566807696304
H         5.25191466550855    3.21502548323872   -1.72782061282270
H         3.71567706671894    3.44261187473797   -0.83206578911043
H         5.39483016106574    4.88665889197610   -3.27979459586142
H         2.07571345826463    3.92395734283342   -4.44287170544767
H         1.67097170030984    3.12441702928023   -1.73021291821832
H        -0.69086082330076    3.23389972573753   -3.29383147195082
H         0.33845192139231    4.62644560360484   -3.88564204444749
H         0.26920505027825    5.43027858831857   -1.69052753086169
H         1.15710769522737    1.47098211267521   -4.19464350658988
H         0.02318472678987    1.22827826537673   -2.92858388075070
H         1.37254364511551   -1.21174140089924   -0.77322904027578
H         0.60310957801751   -1.39486729065214   -2.36623730372199
H        -0.23368556623289    0.65458476792360   -0.55177848295015
H        -0.90227431289402   -0.76926412549213   -0.74075890244322
H         2.21301458547731    1.75989225678684   -0.53654460894121
