35
 energy: -49.725957720608 gnorm: 0.113969913018 xtb: 6.4.1 (79825abcba525fcdf90b791dcacef51065a7a4e7)
C         3.70871732081885   -1.24845685156944   -2.82710168664015
C         3.01328271719692    0.08888851344368   -3.03533839178498
N         3.98584299269063    1.20397388066457   -2.84404506179469
C         3.61801280707464    1.76806348513260   -1.72989412557850
C         4.03825837602939    3.18508221580529   -1.50053298868384
C         3.68517505985644    3.90600666172063   -2.80702536303048
N         4.42965282440081    4.55803805969165   -3.64383641232470
N         2.46586124428726    3.55519799296402   -3.36219826800169
C         1.23864887235218    3.00483556419829   -2.75477918130704
C         0.02930243444709    3.82954715496951   -3.26660318805597
O         0.27479086935508    5.20970369658387   -2.99577241223027
C         0.86264467176223    1.50813624476987   -2.82394195084245
C         1.78294331479198    0.46374845673788   -2.12949525687854
C         0.93585996731509   -0.76113070362352   -1.66428844021184
N        -0.17897583496683   -0.49525163024757   -0.74181816319701
N         2.60391912466132    1.09196306521925   -1.07550187171315
H         4.58497147425069   -1.28987629353197   -3.48493203676965
H         2.95668583033632   -2.02294069603405   -3.01085558448000
H         3.86134684799517   -1.37768583977459   -1.75362520239491
H         2.64132782600872    0.08252732073649   -4.06893575854183
H         5.12943561614061    3.24752908489484   -1.49054427370488
H         3.60068540449886    3.67365411291736   -0.62772063839324
H         5.35871555027943    4.83321561774205   -3.30132024047003
H         2.41891348203050    3.64090891369041   -4.38021356143583
H         1.20969003329196    3.38135209082700   -1.72329647616512
H        -0.87112407816366    3.57273729829943   -2.69923347768068
H        -0.10425192463720    3.65590733172214   -4.34174586384241
H         1.02591559088997    5.44168272488099   -3.57444731677728
H         0.73264680640504    1.33104832254741   -3.89995803793745
H        -0.13169016332205    1.36673145136492   -2.37927602408868
H         1.63136155214588   -1.45741666306535   -1.19641370979652
H         0.47949671995012   -1.22979346893919   -2.54506565667471
H         0.21939943882657   -0.42519532821287    0.19134087668760
H        -0.81170929253376   -1.29658984775006   -0.71944595349138
H         2.09936850895397    1.64994318739200   -0.38968823496947
