35
 energy: -49.712787566756 gnorm: 0.111021889693 xtb: 6.4.1 (79825abcba525fcdf90b791dcacef51065a7a4e7)
C         3.68723040908839   -1.33167397305971   -2.38874524048869
C         3.12024856862270   -0.11854871252315   -3.11147832663126
N         4.15815437711850    0.95293111453347   -3.08771896023681
C         3.83130291229988    1.71022073729861   -2.08049059507644
C         4.33535842843105    3.10935545663061   -1.92078761538886
C         3.59415643920195    3.63302830497205   -3.15679270213436
N         4.14411434172408    3.69454693089929   -4.32871700909847
N         2.22574411173078    3.84168140608730   -3.11295851244537
C         1.16276789522267    3.05431665413326   -2.45870680892219
C        -0.15250935270735    3.81073609876398   -2.77887425723137
O        -0.36013547522663    5.00109574535405   -2.01836044958006
C         1.15445501177159    1.64024995452950   -3.08049276649306
C         1.96039324503507    0.56458955711619   -2.29731341921289
C         1.01250458683736   -0.45897070188189   -1.59865184688122
N        -0.13127039885177    0.24560307273124   -0.99877141816162
N         2.81562626238691    1.21309926663225   -1.28362285824848
H         3.76254099744251   -1.14967408847256   -1.31009699762693
H         4.64515282613805   -1.60533399744724   -2.84331856499140
H         3.03983945346584   -2.20574977654519   -2.48478741692525
H         2.90677747968032   -0.31958338222191   -4.17012347531922
H         5.41973540873388    3.05378412609385   -2.04610934208682
H         3.96458716856091    3.69352843967404   -1.07624951417375
H         5.16475797349754    3.62478114005761   -4.23065131446771
H         1.85328555658795    4.05953553596674   -4.04016928298493
H         1.33239680375904    3.07247892390837   -1.37360034705924
H        -1.02849923822577    3.22461369613815   -2.48268202889378
H        -0.23476311974386    4.18855500713095   -3.80571723908644
H         0.48568256642374    5.44469705711333   -1.81667511397399
H         1.57539292094440    1.90064497039002   -4.06083755325991
H         0.11236444854260    1.31859780778418   -3.21092283664320
H         1.62759310429773   -1.03094071731586   -0.90441862880246
H         0.62565570565629   -1.03526359314352   -2.44830774806094
H        -1.08618694725494   -0.01948772650688   -1.22737102753831
H        -0.12728051676386    0.43424466168133    0.00491852775138
H         2.58071931607409    1.85002387825521   -0.52507211097169
