35
 energy: -49.722133354922 gnorm: 0.103731273090 xtb: 6.4.1 (79825abcba525fcdf90b791dcacef51065a7a4e7)
C         3.42885242803347   -1.55788379736581   -2.46879213897589
C         2.85433634965574   -0.26277511732188   -3.02386803271835
N         3.93944455915935    0.74118688826461   -3.22507063758471
C         3.79204366145527    1.65022976719255   -2.30488454059058
C         4.58227472971952    2.91874341456850   -2.24519420552750
C         3.83212843152310    3.97579980695463   -3.06448323203478
N         4.50610190218082    4.96285519481449   -3.56560819011194
N         2.50941523590679    3.75012893857943   -3.40728388649575
C         1.34099564372446    3.12867548331086   -2.75421556848458
C         0.05075444966119    3.81539934914301   -3.27221154903982
O        -1.01663406328238    3.61324111484877   -2.34578844318897
C         1.18490735639749    1.62012917071917   -3.04780718362022
C         1.89169467864108    0.59147410784328   -2.11922106293204
C         0.81815802101037   -0.18984964706271   -1.29986226796381
N         0.07402178544679    0.73930259033598   -0.43531650724411
N         2.87723332422172    1.34030518094925   -1.31453318397281
H         3.40353559455726   -1.41215448721439   -1.38233012206268
H         4.41363655852191   -1.70652276687765   -2.92403796261830
H         2.82128979559457   -2.45252648135873   -2.61988742526545
H         2.45042554685422   -0.36136210587907   -4.04065272156916
H         5.56539631644055    2.79985733038309   -2.70780115608440
H         4.68836504635225    3.11817414450917   -1.17704335821509
H         5.52224743763741    5.02262977669780   -3.42392965433835
H         2.22637065661032    4.35292955473557   -4.18344287935921
H         1.24817202813989    3.28093057163954   -1.67035116097619
H        -0.22396435781672    3.46110860790728   -4.27102847100624
H         0.13059091894269    4.90779359874162   -3.33717518309341
H        -0.90606838402991    2.91141429318577   -1.67639946605178
H         1.57836771142032    1.54284212042142   -4.07019942369419
H         0.10368996578061    1.43279197959681   -3.09575109889202
H         1.32234988568708   -0.93887974397552   -0.68979026526839
H         0.12074346663692   -0.66606216308622   -2.00023024130087
H         0.55130763932319    0.73848222444690    0.46278932313198
H        -0.81380224432086    0.32094198878389   -0.15293735196461
H         2.40246252915222    1.91478519628232   -0.62112212445281
