35
 energy: -49.723420063215 gnorm: 0.121928744791 xtb: 6.4.1 (79825abcba525fcdf90b791dcacef51065a7a4e7)
C         3.42884812957253   -1.43430474395346   -2.96179912560352
C         2.94714460599356    0.00474504120522   -3.07396794941476
N         4.05286795850291    0.99663323236568   -2.93462784789043
C         3.71172526729483    1.68334800207557   -1.88254757589173
C         4.28509448444580    3.04637893368631   -1.65771574801649
C         3.61291640743785    3.87450352462504   -2.75940014893459
N         4.17966429107565    4.93508050674755   -3.24274075129451
N         2.41717597989499    3.48734265241650   -3.34105397985784
C         1.24505343571646    3.07618140440856   -2.54419627914333
C         0.09407548614515    3.75800388910093   -3.32841547002596
O         0.11128799798270    5.18559113324990   -3.31640049159250
C         0.91538582303002    1.58415321650302   -2.77100615238487
C         1.81368337778802    0.50350849413582   -2.10375794957456
C         0.91879632966286   -0.68589555085492   -1.63600619700795
N        -0.06714202571142   -0.30348984701958   -0.61317024181737
N         2.66708996178590    1.19579011650088   -1.11785721014070
H         4.36978646675057   -1.46292772268490   -3.52402101325099
H         2.64351419261569   -2.10052760416835   -3.33400844947334
H         3.78037352306708   -1.75453968336823   -1.97883059320626
H         2.60247528761733    0.09467462720225   -4.11311670761311
H         5.36020527081209    2.97048987138660   -1.83949800828279
H         4.04618443714711    3.45056842247791   -0.67205513319311
H         5.12848829592854    5.13803544122769   -2.90400800758280
H         2.24595516178589    4.15936764584418   -4.09269981105518
H         1.22596705288466    3.37668651267527   -1.48783825156895
H        -0.81376747489270    3.41871075899092   -2.81917197421304
H         0.04675414022957    3.35334477298862   -4.34720447232655
H         1.05055880924723    5.44941886475516   -3.34853355898943
H         1.04798860762677    1.30665865550239   -3.82527532550671
H        -0.07929157125317    1.42327083766814   -2.33378924851828
H         1.55306074389997   -1.48438747936802   -1.25186736849882
H         0.37653639989375   -1.13068273064568   -2.47968814353355
H         0.50111283271192   -0.26486647313668    0.22943950804013
H        -0.58391551296534   -1.18066229768887   -0.53249347175953
H         2.20174116835232    1.72305632264628   -0.38185835519341
