35
 energy: -49.722668470683 gnorm: 0.110719078971 xtb: 6.4.1 (79825abcba525fcdf90b791dcacef51065a7a4e7)
C         3.65120051274708   -1.36421112653635   -2.55219918602263
C         3.04100987564223   -0.07390548762642   -3.07970577478787
N         4.13425791527052    0.92378312013357   -2.89180106089924
C         3.72940740085291    1.62513739501431   -1.87247448380371
C         4.30770809913959    2.99247041728018   -1.69047545567993
C         3.65742530542298    3.86557707247103   -2.77035471786098
N         4.10972993484583    4.92250834814794   -3.36865363825503
N         2.36374669817779    3.56911145610752   -3.16597274308398
C         1.11315859409893    2.95976991042536   -2.67338850371565
C        -0.00555993625160    3.87523345224177   -3.23466133355344
O         0.23291166843444    5.24072709557871   -2.89260232438944
C         0.89043465418372    1.48158548518805   -3.06279368358766
C         1.81695126339809    0.50718837903396   -2.28044532456740
C         0.97751223412844   -0.67697611793445   -1.70826254099300
N        -0.19740260150865   -0.19729168312476   -0.96396424749050
N         2.58267620634072    1.20046024687968   -1.22564848010082
H         4.46341090514577   -1.70708393505271   -3.20414258860346
H         2.97892296508351   -2.22856145268869   -2.56133670051155
H         4.02114413067475   -1.18056951085580   -1.54137519193360
H         2.87616486634533   -0.10119636197922   -4.16542938410978
H         5.39559136452702    2.89298929525427   -1.72626143367365
H         4.06083169194871    3.41203534848819   -0.71323888951794
H         5.10501098433756    5.11056021305640   -3.19472925353830
H         2.11792774636856    3.98066444749640   -4.06935681219565
H         1.08348802995427    3.04038214334341   -1.57831717662483
H        -0.98555434973885    3.60111194274038   -2.83080994728850
H         0.01498171904218    3.80983948848108   -4.32975082829679
H         1.12167786288839    5.21952404326154   -2.48947412570436
H         1.07155256624979    1.40905362562849   -4.14353678197841
H        -0.17379266188426    1.29520689424348   -2.86503596058552
H         1.63256682259246   -1.36818741318220   -1.17857037151840
H         0.65758811997199   -1.41544505278727   -2.45391185672152
H        -0.09027723752679   -0.19516944118002    0.04742894526836
H        -0.94024801192624   -0.83465469161941   -1.25541609484637
H         2.08483358856856    1.80606756833217   -0.57630574902989
