35
 energy: -49.721127852772 gnorm: 0.117818987220 xtb: 6.4.1 (79825abcba525fcdf90b791dcacef51065a7a4e7)
C         3.55339288831205   -1.45973935261673   -2.89745122584583
C         2.99751444626867   -0.07004418085839   -3.17173376277659
N         4.08903181391770    0.91043049838499   -2.90128740616516
C         3.74540695059342    1.64427191673342   -1.88235309801316
C         4.21708003445238    3.03727741663777   -1.60992863582852
C         3.67128370718727    3.87828695769405   -2.77015769591664
N         4.20578013709024    4.97594095948793   -3.20503013311626
N         2.45266298683484    3.47905438376121   -3.29321286171482
C         1.25519201476103    2.95870050008320   -2.60531602296629
C         0.07783995955585    3.75053249616663   -3.23099650908748
O         0.13928964840488    5.14243662189997   -2.91911063444669
C         0.91112229799470    1.47884227718374   -2.88443463055012
C         1.85764867071121    0.44118820170410   -2.21561962192457
C         0.96877740870926   -0.72160985879414   -1.67515215047142
N        -0.13745626992792   -0.09246567658582   -0.93696069648934
N         2.62778226505162    1.19181201170215   -1.20417755310687
H         4.56558766370526   -1.44781493474262   -3.31887408249772
H         2.85053020805273   -2.19255095327194   -3.30746743030951
H         3.68044384140587   -1.63967486906143   -1.82795184455222
H         2.76144465716998    0.21075163422262   -4.20717529814611
H         5.28155427764883    3.07747590656338   -1.36509037046981
H         3.61334119507422    3.33169747479884   -0.74923690992215
H         5.16337770837106    5.11994977924537   -2.86084136263701
H         2.22553089648242    4.16000899172926   -4.02164778143141
H         1.21975387499905    3.22878591714440   -1.54119296716717
H        -0.90093071806738    3.36233642311154   -2.93109758544028
H         0.08865152716760    3.47031611218058   -4.29178924087250
H         0.97822451457325    5.47256767072238   -3.29336862335047
H         0.88890939737549    1.23932274925680   -3.95597892954246
H        -0.05331221205976    1.45150096129628   -2.35951234616895
H         1.57030904151966   -1.41242714180696   -1.08491954572291
H         0.37113719489226   -1.18725745025951   -2.46867543119857
H         0.09923353568836    0.31523344055082   -0.03576376885126
H        -0.79063824835242   -0.85506467143875   -0.75043680094166
H         2.17172680965604    1.83594873345228   -0.56125082652110
