35
 energy: -49.725460004125 gnorm: 0.119654263276 xtb: 6.4.1 (79825abcba525fcdf90b791dcacef51065a7a4e7)
C         3.53463632373202   -1.53344015785722   -2.80322341220755
C         3.09948600770074   -0.09147028662869   -3.01967545458566
N         4.10611767333903    0.98879214693198   -2.80611576818812
C         3.69405659101956    1.71518039182143   -1.80741952625893
C         4.25972412018245    3.07868510781091   -1.56652526428028
C         3.69058414466527    3.80286011506096   -2.79248301701171
N         4.34664816232549    4.67393992246388   -3.49280064430362
N         2.42701412005651    3.61547280672362   -3.32754059368021
C         1.23012414406700    2.98898570580492   -2.73350756358274
C         0.01178835039157    3.76101730167497   -3.30294317523667
O        -0.23491055479330    4.98515635340466   -2.61079493911908
C         1.09392051106915    1.49349618688042   -3.09576598558314
C         1.89273297584826    0.50126126377001   -2.20283814121821
C         0.96507091656362   -0.59211211559841   -1.58779808415765
N        -0.07636225571659   -0.01551232366425   -0.72324526186133
N         2.62615869211559    1.17534806449915   -1.11322783986063
H         4.52256429629089   -1.61788584241871   -3.27135258240112
H         2.79610386676091   -2.18308436159541   -3.28454896620201
H         3.66160081970550   -1.78758918199247   -1.74888193751328
H         2.81448281526774    0.10657285272755   -4.06191655545142
H         5.34635982225362    3.18536217267181   -1.61662495319537
H         3.87781315545683    3.52939250489821   -0.64838538282572
H         5.30811719252152    4.74296451504413   -3.13641534941418
H         2.42687837219575    3.86149952318140   -4.32020187375650
H         1.29830212227145    3.19577948828908   -1.65687022522859
H        -0.93644709102337    3.24311011217384   -3.12616852208697
H         0.16681376915208    4.03928985987542   -4.35291975833472
H         0.37177545166676    5.61857745904968   -3.03925386780416
H         1.43226953558267    1.36790501398337   -4.13298196473585
H         0.05704790618499    1.16146362868675   -2.95059560059277
H         1.50028863794601   -1.26783022852950   -0.92117197563635
H         0.56033180404902   -1.06620228114768   -2.49063000059121
H        -0.67174028222474   -0.67128970755360   -0.22336771715326
H        -0.65647040529478    0.67616269134767   -1.20079660784856
H         2.08281385251987    1.56883781859051   -0.34759368569437
