35
 energy: -49.721318935682 gnorm: 0.122311316337 xtb: 6.4.1 (79825abcba525fcdf90b791dcacef51065a7a4e7)
C         3.55732977489172   -1.39870737234198   -2.84901560422045
C         2.95787652794678   -0.03035674739898   -3.13842326543663
N         4.02549821208063    0.98380621579170   -2.89854951793616
C         3.59829966582780    1.68019080334503   -1.88495279532557
C         4.15525024542837    3.02508931488837   -1.54113748974109
C         3.61944983478759    3.90708865715822   -2.67529676698400
N         4.16879670514853    4.97132255051184   -3.17054319790215
N         2.48853923838190    3.39681043329697   -3.29065616226094
C         1.18228336346887    2.93051045404859   -2.78650651719866
C         0.10174810397865    3.84067930680516   -3.42577799789873
O         0.30024690567075    5.22140784419621   -3.12142148820100
C         0.87887560992804    1.43403058692421   -3.02052199124437
C         1.73678765010604    0.39538605080513   -2.24260419536013
C         0.97798167657583   -0.76222356548331   -1.52256947661586
N         0.11776332733658   -0.09795664772963   -0.53096681963631
N         2.53053696044468    1.10478680087563   -1.21973101984361
H         4.30652588105981   -1.71401811876310   -3.58492456824621
H         2.80244836484986   -2.18792084868344   -2.92925413127513
H         4.04343871322387   -1.51185716485400   -1.87780868414255
H         2.73519218176390    0.19238384132587   -4.19080756837025
H         5.24381324714733    3.12215354835336   -1.52451654459048
H         3.72539326872673    3.40846680625588   -0.61365774586467
H         5.06732391870708    5.24601402582524   -2.75414074899290
H         2.42364445365855    3.82618261494322   -4.21657937399700
H         1.11132360712596    3.28182584767762   -1.74818957006548
H        -0.84350071367769    3.56119827024628   -2.94930909445069
H         0.10650232117287    3.83843440749880   -4.52299797538984
H         1.25965051062775    5.36285181661517   -3.01004112123352
H         0.88585138124972    1.41589468019686   -4.11856234617765
H        -0.17476578708443    1.32003871229496   -2.73195567662785
H         1.80529580804611   -1.17733508234681   -0.94752415381307
H         0.50431501748720   -1.44158052454519   -2.24214901667395
H        -0.07917795095153   -0.73064044285538    0.24060423175005
H        -0.75252784312267   -0.03502904474530   -1.06165362376398
H         2.11294125638724    1.56718806476592   -0.41471402196911
