35
 energy: -49.727739622679 gnorm: 0.110018838521 xtb: 6.4.1 (79825abcba525fcdf90b791dcacef51065a7a4e7)
C         3.67474889842307   -1.50243851315291   -2.52607313413326
C         3.11841096876123   -0.21252096315323   -3.11095368315634
N         4.09084070199501    0.90922767725113   -2.96282402622723
C         3.68005458461947    1.60173786050051   -1.93983194145876
C         4.17360770606351    3.00238706412008   -1.76166908369045
C         3.53442843790786    3.95230112809594   -2.78168637732936
N         3.93365764552128    5.13943072355219   -3.11482920199546
N         2.39996728145052    3.47264687337997   -3.41488423048825
C         1.23694999873103    2.86267490569195   -2.74165915977999
C         0.03981745360266    3.74450378210451   -3.18198102708751
O         0.21078423854900    5.05154265713380   -2.63346876481811
C         1.17685363847226    1.40510815349072   -3.24975280282524
C         1.88041227712052    0.36538866767237   -2.33109055499622
C         0.84246388965140   -0.59021298915343   -1.66491853050609
N        -0.24217360901534    0.15735838817197   -1.00978457133672
N         2.61568726013478    1.05019065315576   -1.24943724960819
H         4.55807530494449   -1.82496484664450   -3.08997818187210
H         2.95815889731650   -2.32925834590433   -2.48124222317576
H         4.02151171801007   -1.30539699924690   -1.50957037788828
H         2.97653254357281   -0.40924175535128   -4.18234803130141
H         5.25869767495767    2.96355766485703   -1.88712490046152
H         3.86060338111093    3.34431391012946   -0.77319130770211
H         4.78026025337898    5.50548689151915   -2.66154732508510
H         2.20507552894454    4.14975461579784   -4.15613177187508
H         1.32813491595987    3.00112508247995   -1.65580615370072
H        -0.87642375835459    3.41650300812010   -2.68043827656737
H        -0.12149527219248    3.81169384545719   -4.26520908600190
H         1.03315538686062    5.53923079134349   -2.83027638158674
H         1.53438230420674    1.24348314728750   -4.27548221281805
H         0.11172010742511    1.15953296995358   -3.14201111171293
H         1.38691014232912   -1.13360073844495   -0.89306919739457
H         0.28136598454980   -1.15511943100607   -2.41972350875584
H         0.12178869566833    0.82461374044387   -0.33399002228665
H        -0.89722982544927   -0.48919600922248   -0.56721949248635
H         2.21005279343392    1.59458111736956   -0.49091686925732
