35
 energy: -49.722201254316 gnorm: 0.120158245776 xtb: 6.4.1 (79825abcba525fcdf90b791dcacef51065a7a4e7)
C         3.58383888484620   -1.28090161283209   -2.78459839748909
C         2.95978526716925    0.04936083212055   -3.18012761793019
N         3.97223441788685    1.11447392970400   -2.92251778904960
C         3.69024676669628    1.67465580470896   -1.78168139890178
C         4.17197182034309    3.06504140855265   -1.51349525877825
C         3.72375256701775    3.84325253354513   -2.75639877984672
N         4.58364265309195    4.39120195353492   -3.55638959264698
N         2.45436176657068    3.61387262336971   -3.26042428851773
C         1.22216063034449    3.06295749648394   -2.66370000508010
C         0.04217389185281    3.81221219310066   -3.33517639588412
O        -0.05305134724773    5.14963230878691   -2.84457926030604
C         0.95121101555209    1.56007942570861   -2.89654189668868
C         1.82688963900768    0.49114380824046   -2.18203837998968
C         0.98518848353160   -0.65386820919618   -1.53800173442398
N        -0.36961927443923   -0.34219093854701   -1.05648830518697
N         2.63805010295695    1.08737777770495   -1.10218621295574
H         4.37001479623671   -1.49434066105711   -3.51852543325492
H         2.95003233874121   -2.16768824387350   -2.67952313070591
H         4.16283876768806   -1.18648588129072   -1.86362474152138
H         2.67650496895087    0.22931973596895   -4.22611112079000
H         5.20350521161887    3.23637320825124   -1.19529498718585
H         3.59287146570171    3.38532861608329   -0.64514458057702
H         5.47863401020814    4.63181479475138   -3.11221226365123
H         2.42734460302387    3.54482941370233   -4.28042855900302
H         1.33439129862846    3.34310813321077   -1.60753723792509
H        -0.94188574647130    3.40230885027326   -3.08571001486529
H         0.21298661482563    3.79735219195919   -4.41892983994817
H         0.78072267337433    5.59840601640605   -3.08183503714832
H         1.00732625040160    1.43001393741274   -3.98558012448875
H        -0.10659985099697    1.39684165729454   -2.64993599202144
H         1.57799177269999   -1.13423268870704   -0.76000585701495
H         0.81391454751130   -1.36735256989119   -2.35365240513303
H        -0.30853262441205    0.41647254077006   -0.38188124688192
H        -0.70570822887446   -1.21013999504944   -0.63612687065831
H         2.17912998259387    1.70100575566679   -0.43203211278601
