35
 energy: -49.724310493004 gnorm: 0.110479426080 xtb: 6.4.1 (79825abcba525fcdf90b791dcacef51065a7a4e7)
C         3.63562521949207   -1.42261206284999   -2.80958125523418
C         2.98772783877928   -0.09149845557609   -3.16150454553081
N         3.96475231583106    1.03300195654836   -3.07901815136354
C         3.76853239686068    1.71316349655363   -1.98644941132809
C         4.25939021497059    3.10623159824597   -1.75070629105576
C         3.64242062129264    3.90966761945020   -2.90186278521579
N         4.17443366397539    4.86029919658228   -3.60393581234085
N         2.34058768349803    3.59338550287588   -3.25287058132452
C         1.16253834263285    2.94243544431524   -2.64758490205072
C        -0.02854972338727    3.69504620732752   -3.29528708583600
O        -0.03853446741486    5.01872356338232   -2.76028752276896
C         1.03748261571137    1.43071432026943   -2.93970108576861
C         1.90684653287868    0.41929266811550   -2.13896121186063
C         0.98023467664287   -0.62164744247990   -1.43744092058549
N        -0.14045455346744   -0.05868225329236   -0.66826745642796
N         2.71684640743173    1.24352280699052   -1.22021106528248
H         4.55900256484505   -1.48085376763291   -3.39801975454262
H         2.96053166300849   -2.28398799851862   -2.84729423006137
H         4.00505481589460   -1.33551367145462   -1.78572417836077
H         2.59530504099902   -0.06471982102940   -4.18717587629460
H         5.34592245292979    3.19160323309774   -1.66808356232886
H         3.81632284173124    3.32664084772277   -0.77752333010586
H         5.14080139707917    5.01344811805459   -3.28948966343530
H         2.12907373867755    4.11081185949907   -4.10928019186539
H         1.15102027114507    3.15732698557898   -1.57043642028795
H        -0.92825213142333    3.17568184058608   -2.94970954637973
H         0.04664957956803    3.63073796265081   -4.38804911440948
H         0.90785643214205    5.25608186713616   -2.78982672130079
H         1.32206995609934    1.19750897658502   -3.97444527477582
H         0.00000323777963    1.20118594763833   -2.66153179794206
H         1.66430542889659   -1.20714763318694   -0.82369822458041
H         0.46034932274251   -1.26655143831755   -2.15681478902907
H         0.14740577718523    0.28440778523658    0.24487119276524
H        -0.86552178138315   -0.77784032284158   -0.65908747878819
H         2.38304151411845    1.75348463593059   -0.40487879812856
