35
 energy: -49.720005030741 gnorm: 0.105905471240 xtb: 6.4.1 (79825abcba525fcdf90b791dcacef51065a7a4e7)
C         3.67536172971360   -1.49428999340804   -2.71275660055063
C         3.10229376693810   -0.17259278678539   -3.20285254998864
N         4.02232397599346    0.99076127451759   -3.04150282205840
C         3.63769334553414    1.66563032540419   -1.99678302894584
C         4.03743913795411    3.04489492229887   -1.57846809242816
C         3.53781825656424    3.91974883856721   -2.73446626620362
N         4.20958424210510    4.89548827199209   -3.26011617065443
N         2.31607041427856    3.64843642129119   -3.32753592462440
C         1.19018698877985    2.83954575455721   -2.82158200545540
C        -0.05058245201476    3.72272258855165   -3.11333823944352
O         0.16688039082763    5.02216239210927   -2.56323636899288
C         1.13977521126728    1.38077172536245   -3.32725829045527
C         1.83959542918958    0.33439064967642   -2.41331628839779
C         0.93321541096307   -0.61009079460687   -1.56436010481635
N         0.23104960367336    0.15177177443887   -0.51983601583061
N         2.58497675539949    1.04068943475736   -1.35260630949482
H         4.35354901188281   -1.80611012393468   -3.51594269331623
H         2.88723737154867   -2.24725624620640   -2.60766665308535
H         4.16698420465499   -1.37680693307594   -1.74484506700512
H         2.89538649301902   -0.29529155202245   -4.27469619878015
H         5.12434298382937    3.10482149136358   -1.47989847906987
H         3.68104724575038    3.30378838420249   -0.57950213755100
H         4.98890635914141    5.11252213992131   -2.62627793607689
H         2.24677199647244    4.27244650626601   -4.13482443194121
H         1.23263868187358    2.96669550460038   -1.73135694630120
H        -0.92666493377220    3.37205312011679   -2.55823644499898
H        -0.25568056268131    3.76859436478095   -4.19025507476934
H         0.66940031480062    5.58863817590096   -3.17922839225198
H         1.57352543097779    1.46648555736183   -4.33253640647033
H         0.05424101083154    1.26943306257569   -3.45233455087116
H         1.57517228281235   -1.32424739274925   -1.04927265065530
H         0.25265329895649   -1.06008648434749   -2.29785843133139
H        -0.23846373941424   -0.39728670680188    0.19604703278848
H        -0.41766016498965    0.90053613125789   -0.76787362253532
H         2.00715821929215    1.40625295746572   -0.59845610647875
