35
 energy: -49.716962507559 gnorm: 0.124603541578 xtb: 6.4.1 (79825abcba525fcdf90b791dcacef51065a7a4e7)
C         3.66400599870285   -1.33736943234556   -2.81838959822022
C         3.05957425063974    0.03829349298252   -3.05859408712695
N         4.05841070042787    1.13022142459558   -2.86911818592832
C         3.70200879132130    1.75289043416620   -1.78279899276499
C         4.05445934657864    3.19081919777972   -1.56997418720199
C         3.66627206154358    3.84559780886086   -2.90110069379463
N         4.27510599919142    4.66084309155074   -3.70380932948763
N         2.45171284657763    3.38190334268651   -3.37842991819033
C         1.23835900090708    2.93025001506164   -2.67013007242542
C         0.09355581496430    3.90410128232564   -3.05179900485927
O         0.27723956050373    5.21489682880829   -2.51652219991934
C         0.91855616863641    1.44088253261857   -2.92661037690706
C         1.83726352381393    0.44882481284773   -2.15735754925352
C         0.99105130872333   -0.76087254707041   -1.65252720026259
N        -0.30531721431014   -0.33117204607359   -1.10545491796202
N         2.60442616202305    1.20225436892067   -1.14574384926401
H         4.63163863130785   -1.48828004278097   -3.31153333989276
H         2.81559615376862   -1.97924218523314   -3.07789332502108
H         3.90110746924900   -1.36055819029777   -1.75274761337798
H         2.75888008490155    0.05327450381146   -4.11503764792436
H         5.11789647052668    3.27917837762037   -1.33341285303430
H         3.47205202986151    3.62139540471302   -0.75304099544872
H         5.25216861437044    4.83050972490352   -3.43406974907645
H         2.33580569466216    3.45414341077427   -4.39196457216566
H         1.47774692561578    3.18918389336565   -1.62983850469353
H        -0.76540612982708    3.39974650355851   -2.59744426839059
H        -0.25498637616624    3.87004879181823   -4.09164422509541
H         1.01741555091942    5.59596081801064   -3.02622505269633
H         0.90323273651098    1.27941469840887   -4.01277956925490
H        -0.11975819394455    1.20454473693788   -2.65740304921531
H         1.62085155248562   -1.29906151169254   -0.94460938356237
H         0.70923094558552   -1.41403148277457   -2.48777649325344
H        -0.40941869573193    0.53258620607388   -0.57869017713603
H        -0.73581977463679   -1.18921076808969   -0.75698371571123
H         2.13277532535612    1.59638704064598   -0.33428936452413
