35
 energy: -49.721394867224 gnorm: 0.117077966701 xtb: 6.4.1 (79825abcba525fcdf90b791dcacef51065a7a4e7)
C         3.66628684485899   -1.47239614119364   -2.73848580359385
C         3.07390936081677   -0.11016274671413   -3.06847598973068
N         4.07907622706212    0.98320964802969   -2.92684841358378
C         3.73562161059196    1.68417501144034   -1.88496795495899
C         4.27481206291960    3.07154469290546   -1.73788318439330
C         3.64068926746027    3.90213569401055   -2.86008149356814
N         4.10476940348577    4.93981420430941   -3.48257465566101
N         2.45347356605770    3.45392061658926   -3.41472730208446
C         1.28776479361050    2.93111747073086   -2.67600752419543
C         0.01213555510475    3.68010384056896   -3.14121855690726
O         0.02980585178484    5.06330442296854   -2.78782095028201
C         0.99398872101976    1.43134535128203   -2.90106475952187
C         1.89435093610018    0.40062199043539   -2.16153185210070
C         0.95528099176965   -0.64839920893970   -1.48922336123081
N        -0.12352870325885    0.01803781972568   -0.74321176865402
N         2.65685945601036    1.18978440329678   -1.17392850014097
H         4.49086157316044   -1.55100189085935   -3.45693923671888
H         2.96231492735040   -2.26602141786413   -3.01000842929372
H         4.01812459371030   -1.51070907603395   -1.70548532898676
H         2.75621985468159   -0.00206318809113   -4.11446943094516
H         5.34378529845053    3.29009992818148   -1.80266710378214
H         3.89206499745825    3.39568026305070   -0.76813331171848
H         5.02630655254506    5.34700142049417   -3.27968205245390
H         2.19276231727221    3.92246858736786   -4.28558781965115
H         1.32596228978724    3.05675167989107   -1.58544946203086
H        -0.84898927459820    3.17962576625589   -2.68667117744407
H        -0.13319854161501    3.59089670771930   -4.22511865335443
H         0.29272270006943    5.46271822351098   -3.63882659600344
H         1.11838579965433    1.22022573124330   -3.97158990504869
H        -0.06578426040171    1.34344628798472   -2.62614685303688
H         1.49522844056985   -1.42214831180292   -0.94405143711681
H         0.57508441227089   -1.07417801533439   -2.42615649012044
H         0.17840992123563    0.36020341670092    0.16571744036712
H        -1.01355817640426   -0.46556083488031   -0.61292378612926
H         2.01173592551060    1.76304837881628   -0.63407896372053
