35
 energy: -49.721343678294 gnorm: 0.115352773093 xtb: 6.4.1 (79825abcba525fcdf90b791dcacef51065a7a4e7)
C         3.64455082342856   -1.48352066126444   -2.83123133202093
C         3.05587672302838   -0.09954193183528   -3.06264029228919
N         4.04954194676522    1.00257190543414   -2.90818477346588
C         3.69742383078637    1.65680965942555   -1.83915989129952
C         4.08914422920990    3.08249415244650   -1.61303212751333
C         3.64551447236036    3.87671460744781   -2.84742617324552
N         4.34289158190406    4.76973962614886   -3.47656547478330
N         2.38098113457759    3.64250776979839   -3.36134484994599
C         1.25814282706423    2.89002021853010   -2.76897371211874
C         0.03885755367447    3.77138499591159   -3.14470150277059
O         0.09687980414332    5.08230958359061   -2.58206832162585
C         1.03937454678355    1.39818378256408   -3.10488441116383
C         1.84033697204120    0.41330987883602   -2.20575468823995
C         0.93704402779001   -0.66062993915419   -1.52383705260865
N        -0.21305902710374    0.02445564561276   -0.91357262258865
N         2.60906335580602    1.12874620191755   -1.16808058280961
H         4.48391751675645   -1.58349237987661   -3.52962011299092
H         2.86027374619820   -2.24057273161839   -2.93574787282157
H         4.05174255611064   -1.44786238062472   -1.81867464417726
H         2.74305982880616   -0.03722310965689   -4.11381885784940
H         5.16809485314802    3.18313439463940   -1.47018879120151
H         3.50644052016405    3.52421055552084   -0.80228123980996
H         5.34293347423985    4.93137526350738   -3.30339595673017
H         2.14197485344945    4.31481214167147   -4.09400330530320
H         1.44597290485311    3.02762880893270   -1.69550101997184
H        -0.91804668291640    3.47365880920354   -2.70388295911895
H        -0.00567566724072    3.74918063639948   -4.24080509562156
H         0.94608837071858    5.45638445553799   -2.88502056386651
H         1.40087785251995    1.49210352281124   -4.13763058155176
H        -0.02001795299708    1.11720804026661   -3.03301631986558
H         1.52420627111686   -1.23996551502983   -0.81175970854092
H         0.65846132533200   -1.46255870443852   -2.21880657099034
H        -0.00576636842616    0.17462830641053    0.07074158742456
H        -1.11114523102116   -0.46022706063320   -0.95254603832343
H         2.00756870285320    1.72533055276747   -0.60368287174554
