35
 energy: -49.714785012707 gnorm: 0.129125186483 xtb: 6.4.1 (79825abcba525fcdf90b791dcacef51065a7a4e7)
C         3.69835306469777   -1.25713802920742   -2.69138723961701
C         3.04404268341743    0.04622748425456   -3.12566906230456
N         4.01764400418962    1.17044463797763   -3.00684877025636
C         3.72042581137764    1.77111502734084   -1.89074624280557
C         4.06490534026520    3.20318402065491   -1.63061703763167
C         3.58688290793110    3.82416593790033   -2.94864518181853
N         4.23535901353859    4.39715462537185   -3.91342883679507
N         2.28879815029629    3.52922718726288   -3.33074062161113
C         1.14577757084797    2.94603944934181   -2.60183530277621
C        -0.08620702703574    3.80519063778344   -2.98745818357717
O         0.33366690959493    5.13811446842722   -2.69511267076077
C         0.85821260568458    1.44555588239080   -2.83014860342940
C         1.91569018399331    0.53402516721787   -2.14399657728447
C         1.07969492173815   -0.66660109823223   -1.60186647464699
N        -0.16526700251118   -0.25003590521038   -0.93775412072427
N         2.72492092445876    1.21031247272734   -1.11087605537534
H         4.58858861289110   -1.25512535512825   -3.33150777731383
H         3.09517735414161   -2.15160109135943   -2.87915562907819
H         4.12098736743839   -1.19331419231210   -1.68657162052960
H         2.66196497000521    0.05656561335884   -4.15553515055077
H         5.12685610876657    3.35851927967016   -1.42373869422411
H         3.43578523125142    3.53740837339778   -0.80328640845295
H         5.21992726111603    4.42937046633472   -3.62053794479748
H         2.28735289630340    3.57787863084497   -4.35227698312066
H         1.31379198131973    3.24109247953478   -1.55719433882517
H        -0.88216633569670    3.49970160569536   -2.30061553425943
H        -0.34357131516347    3.64090064549744   -4.04135179589330
H         0.76355655731708    5.64849750890478   -3.40755305560886
H         1.02319164069711    1.19866219456241   -3.88745443821792
H        -0.13327027008263    1.23624702665808   -2.40638408242148
H         1.65315321994099   -1.25276018892468   -0.88422697181687
H         0.73853829680628   -1.24855168638743   -2.46709845392498
H         0.06691280246858   -0.05090303971303    0.03221246569864
H        -0.74130244612301   -1.07843487720810   -1.09565725219647
H         2.17241154220012    1.64767474868319   -0.37623253714375
