35
 energy: -49.722145751162 gnorm: 0.135478864145 xtb: 6.4.1 (79825abcba525fcdf90b791dcacef51065a7a4e7)
C         3.75048490163217   -1.33824821755026   -2.69691247393336
C         3.00500186902436   -0.06344114775623   -3.06379997402057
N         4.01574820291523    1.03244952307127   -3.00637609921061
C         3.69470440918197    1.63384810350007   -1.89728680311629
C         4.09496452051732    3.04302149724816   -1.59533126627522
C         3.61505869841617    3.88319181707792   -2.78492213310077
N         4.24730516859229    4.87990137896326   -3.32015971114902
N         2.42076034626835    3.58090987348892   -3.41760446391939
C         1.26545838995565    2.94978236741009   -2.75062436794487
C         0.09227097994420    3.79739974370942   -3.30722830459860
O         0.20714907722181    5.14212397922691   -2.84143251384455
C         0.91785978577984    1.46576118483621   -3.00187699484591
C         1.76891276992161    0.42347422082238   -2.22130130859968
C         0.85369790844667   -0.71437217113623   -1.67177067756401
N        -0.15234573590045   -0.15583080958859   -0.75503204906296
N         2.64000851973372    1.05774830451413   -1.21212068344356
H         4.65734371526074   -1.47563831243747   -3.29775250061569
H         3.08601601932533   -2.19761631411493   -2.83515017835125
H         4.02677157677626   -1.13384725241675   -1.66046006704221
H         2.69042574519912   -0.15929034097284   -4.11192650479893
H         5.18379517191099    3.08475515243423   -1.50946358148109
H         3.70564244560226    3.29854348782015   -0.60785426161530
H         5.15253016309994    5.15852904461689   -2.92124631822663
H         2.29616531454072    4.12312659787108   -4.27573190097802
H         1.24943129991186    3.19468203494935   -1.67995766934113
H        -0.82520650552702    3.42493766001156   -2.84017941895293
H        -0.10622058004782    3.61306963923646   -4.37049818876927
H         0.91529486162554    5.58045078061473   -3.35061462726935
H         0.75877373289585    1.14048978934498   -4.03867994037181
H        -0.09716192437987    1.31109970451435   -2.61170313719528
H         1.51361357941441   -1.42795437567881   -1.17906883066802
H         0.31003020215514   -1.31103129988737   -2.41480769831110
H         0.31029189707920    0.31141033797679    0.02088590409443
H        -0.62579001105749   -0.87924751029936   -0.21142016422923
H         2.13500826004031    1.70106666648317   -0.60601036480617
