35
 energy: -49.719541400687 gnorm: 0.117602862838 xtb: 6.4.1 (79825abcba525fcdf90b791dcacef51065a7a4e7)
C         3.75850640757743   -1.52977943936043   -2.62085254055308
C         3.20242769037898   -0.18421631042835   -3.06325590494518
N         4.12436626910439    0.98771975421339   -3.01348534481288
C         3.75959374380776    1.68665306613299   -1.97750192564555
C         4.24571985667570    3.08323441449585   -1.75300946953537
C         3.54199295530739    3.85538712530585   -2.87544912912209
N         4.15230738964230    4.63410402075676   -3.71256385668786
N         2.16047816805546    3.82667111809131   -2.96819659731236
C         1.12808442527300    2.88444788096620   -2.49460871219141
C        -0.13625260378360    3.70280695234231   -2.86389468668057
O        -0.10669845257361    5.06601832644835   -2.44054228854831
C         1.29012169145347    1.52976686512265   -3.21907733122659
C         1.96076388926187    0.44402065252581   -2.32950109505849
C         0.89614215240753   -0.53024317255712   -1.73646897219706
N        -0.07690793191686    0.22075217873239   -0.92796325940525
N         2.70861298635195    1.13957998910120   -1.26344486923838
H         4.41561215640421   -2.11354869919011   -3.27637000839136
H         2.88519123208419   -2.12525240514575   -2.33471510999017
H         4.27876705440813   -1.43098707615221   -1.66590930235539
H         2.93832132350884   -0.21853148052198   -4.12898791435890
H         5.33275925671796    3.03156285076617   -1.85470765038345
H         3.97608287442226    3.39847415241111   -0.74311156001548
H         5.17650264629516    4.60717570543977   -3.63196298076309
H         1.89610687554651    4.16317115406596   -3.89705673077088
H         1.02649382251896    2.76172002274276   -1.40778899892535
H        -1.02090186604067    3.31237692588009   -2.35048679131325
H        -0.32350299621407    3.73091000769251   -3.94466609396284
H         0.68638927577360    5.56825234700160   -2.70819897459787
H         1.84338704147985    1.48543132080752   -4.16670700870370
H         0.33497743434769    1.06366530861332   -3.49633831308367
H         1.40145335182166   -1.19356856528988   -1.03496817308042
H         0.49897135079708   -1.13669599410507   -2.55996823309299
H        -0.56752338009000   -0.42010682432915   -0.30909917184986
H        -0.79289227817631    0.48836563530633   -1.60527008824780
H         2.19760591276204    1.65645782295249   -0.55072995236511
