35
 energy: -49.714894210843 gnorm: 0.118886389359 xtb: 6.4.1 (79825abcba525fcdf90b791dcacef51065a7a4e7)
C         3.75756028331660   -1.34013522190494   -2.54012794569448
C         3.00662013635242   -0.14973287504684   -3.11850117113775
N         3.94242188396312    1.01001231878397   -3.04675035049648
C         3.66124853697269    1.59538617542963   -1.91842973279973
C         4.17320660638086    2.99090986436077   -1.75239512443423
C         3.68534100083504    3.84800682796502   -2.92657318849779
N         4.36357410512324    4.77835132699895   -3.52163938486387
N         2.45822716077652    3.55465793458188   -3.49766679334131
C         1.30177753958123    3.06273532987041   -2.72401090910855
C         0.03365168218718    3.85677928295738   -3.13142083944225
O        -0.18905641539650    4.94605838115508   -2.23569872307534
C         1.16651048985227    1.58151733483750   -3.14110516871354
C         1.82565759351514    0.46550549254480   -2.28087593248627
C         0.83265033292620   -0.60391834679923   -1.72900114932087
N        -0.13985222780800    0.13089174800044   -0.90511106595768
N         2.61004241884501    1.07208674101171   -1.18709507439683
H         3.76167600860207   -1.27868889627430   -1.44537450752454
H         4.83038664614354   -1.33703919212967   -2.75961846434005
H         3.25167895885436   -2.23973429209149   -2.89671350964699
H         2.53284745668400   -0.39618748936720   -4.07845637287674
H         5.26159869933472    2.96899694222863   -1.85032171912543
H         3.81627364298585    3.49425020130012   -0.85171684660904
H         5.36393176189230    4.70071654733404   -3.29925466070136
H         2.26270540437182    4.19984987288268   -4.26669488400648
H         1.46656812393863    3.18191166636895   -1.64456616836335
H        -0.79552736618880    3.14726639105383   -3.21906304848235
H         0.35640466464933    4.20896368605140   -4.11920421448286
H        -0.82393785514858    4.61783219961723   -1.57082249944018
H         1.62863752969096    1.45576056346346   -4.12938349485262
H         0.11780303852049    1.30486967723041   -3.31460911752261
H         1.40610846094789   -1.30397527708350   -1.12195137527251
H         0.33688917581104   -1.10309899126794   -2.57085639901519
H         0.35165558006567    0.75539352487464   -0.27043465733543
H        -0.70204410365128   -0.54812096885815   -0.38947833779327
H         2.22036626498995    1.71571123107336   -0.50141768125615
