35
 energy: -49.718936416169 gnorm: 0.112976068339 xtb: 6.4.1 (79825abcba525fcdf90b791dcacef51065a7a4e7)
C         3.38869009122001   -1.48623108534290   -2.45288271101009
C         2.97816924765485   -0.12025983601869   -2.98305216922971
N         4.08666718234702    0.87792586514802   -2.95585543027574
C         3.77278037907217    1.73706305095958   -2.02947170183835
C         4.42629904918482    3.08228333471576   -2.05070134730744
C         3.89482816824921    3.80613619666772   -3.29364058575158
N         4.57930511402237    4.50204950744531   -4.14619016844882
N         2.52319460103156    3.77381801258624   -3.48228509156112
C         1.38206364239867    3.22178204868971   -2.72665064318130
C         0.04982664078621    3.95082984344336   -3.04012429214878
O        -0.83573529074494    3.75126624307958   -1.93812592621088
C         1.19480610264466    1.71462992315906   -3.00896014833232
C         1.90930723477830    0.65222094264241   -2.12537255827168
C         0.89370241514280   -0.33932490131345   -1.47754519437507
N        -0.18579234093018    0.42291040172772   -0.83086876390691
N         2.76386874937750    1.36842715929834   -1.15773096399049
H         3.66830311565385   -1.43704699715314   -1.39379103931535
H         4.30503169010754   -1.73713078332058   -2.99740957401325
H         2.60698375808705   -2.19047326113166   -2.74498858293389
H         2.72944145514421   -0.13962298864527   -4.05285308060275
H         5.51788056383244    3.03277347595752   -2.07650280011659
H         4.08861721049174    3.65474960119760   -1.18454468297936
H         5.60625689159921    4.47884581031943   -4.17827122799905
H         2.19988577629477    4.08775134776590   -4.40033893986882
H         1.45521877898658    3.37791571395872   -1.64183245495391
H        -0.51957300236071    3.65169265092428   -3.92608624344309
H         0.30362090220442    5.01760111291625   -3.07894268404805
H        -0.89417286226946    2.83240542548772   -1.61386197719905
H         1.52822510173010    1.63182010595141   -4.05205388108686
H         0.11519824901162    1.51651930785931   -3.04925848376653
H         1.36658242215835   -0.80696182242293   -0.61432819765714
H         0.53182119743114   -1.08803134637353   -2.19319969129720
H         0.23185340731329    0.60972621420982    0.07746400783879
H        -0.98502299490095   -0.18139043327070   -0.63326828091236
H         2.16874790367083    1.87622318341487   -0.50640319021725
