35
 energy: -49.721783084651 gnorm: 0.116545183799 xtb: 6.4.1 (79825abcba525fcdf90b791dcacef51065a7a4e7)
C         3.54064046747042   -1.42429867422979   -2.67786680625279
C         3.05140619641127   -0.08222096309285   -3.20223471806297
N         4.11016778398223    0.96233713190377   -3.08474300793474
C         3.71707909833386    1.55993798131204   -1.99700087352234
C         4.23257761133073    2.93736450483792   -1.72476491378005
C         3.57714797681146    3.91420593053451   -2.70838833048617
N         4.07858093655403    5.07473148231988   -2.99367809437505
N         2.42920417710462    3.55474879056988   -3.39470127063690
C         1.20677228466656    2.98070690889666   -2.79968600322364
C         0.00096494765715    3.82089621361064   -3.29440050600135
O         0.12288363610867    5.09459884085910   -2.66094694168527
C         0.88174994386850    1.48015344205037   -2.96989561067596
C         1.84911113602042    0.44145192645819   -2.33329275693503
C         1.00704076457866   -0.68265526709764   -1.65388337423192
N        -0.00261076801885    0.00227805998504   -0.83170814227551
N         2.65686771663455    1.05908134519159   -1.26295627642411
H         4.50326520038761   -1.69613065702799   -3.12702010116853
H         2.74208000589543   -2.15307903976860   -2.85200024064194
H         3.73162666563588   -1.45872980033272   -1.60330343509384
H         2.80632452658332   -0.21771624816074   -4.26444487965388
H         5.29707994733739    2.95337684655155   -1.97224325907326
H         4.09645612635078    3.12420127046588   -0.65774243521917
H         4.99382252596565    5.21288728561615   -2.54708725780595
H         2.30536200434847    4.03381616599376   -4.28972258958317
H         1.16740784745072    3.22584857411534   -1.72967857328020
H        -0.96800684171314    3.47861659825805   -2.91682146555690
H        -0.03749489687805    3.92565072290374   -4.38594375361971
H         0.98767513368551    5.45127030924192   -2.93985264580279
H         0.68448387733245    1.15767483498021   -4.00099398360285
H        -0.03524400863344    1.38037898633125   -2.37358022768057
H         1.80602895272555   -1.18206852618168   -1.10648256023252
H         0.66733166592653   -1.29542478999219   -2.49815345054224
H         0.27126134641637   -0.21524627264385    0.12331739242599
H        -0.95104240391572   -0.37333901276523   -0.88053778355227
H         2.23440611040892    1.69720266954899   -0.59170307470764
