35
 energy: -49.711751208777 gnorm: 0.136544875946 xtb: 6.4.1 (79825abcba525fcdf90b791dcacef51065a7a4e7)
C         3.78764878336309   -1.25193388035014   -2.55386415005735
C         3.00425777114758   -0.08940303542416   -3.14572986211141
N         3.92471813121440    1.07420702801614   -2.98873822566050
C         3.62833158412427    1.69563985997863   -1.88383791520358
C         4.11317028952958    3.07620422413211   -1.57379204428541
C         3.65330967737361    3.81828902565627   -2.83441117083399
N         4.46520317312396    4.45700293676122   -3.61704665739880
N         2.31546370101788    3.74833811134552   -3.18553061321631
C         1.18380766376177    3.01961250684740   -2.58036899978622
C        -0.06615805507419    3.80191010179363   -3.06018980906542
O         0.13519332193354    5.21084963709512   -2.94708379743048
C         0.98388614578414    1.52747481359814   -2.92653083574406
C         1.84306127748778    0.43724120455689   -2.22427699021473
C         0.87187598682329   -0.73667768366200   -1.88810716193699
N        -0.09157030418718   -0.18615478273793   -0.92208554491626
N         2.64882948493652    1.05074179767975   -1.15007422859839
H         4.78832063597065   -1.14253273304756   -2.98856510503901
H         3.25995976027656   -2.19875580885252   -2.70947460961871
H         4.00001895659356   -1.00215609087103   -1.51229915545063
H         2.69489472962811   -0.04849251133671   -4.19897972110560
H         5.20039934404214    3.18844550579991   -1.57236733652864
H         3.51674789301761    3.32689874111955   -0.69435665817146
H         5.43544139711855    4.64131746259856   -3.33268156955680
H         2.25549143234115    3.89547089469577   -4.19580823384075
H         1.37349535728066    3.14035656259129   -1.50519490307409
H        -0.95020187210396    3.69372137200587   -2.42348790077662
H        -0.21527322893533    3.68330764952418   -4.14075329773887
H         1.07624036286249    5.35230120969810   -2.72962304090380
H         0.99020061449174    1.50971574697804   -4.02458135735159
H        -0.06892481515979    1.34928976922254   -2.66911279177159
H         1.47602992989183   -1.57149871088892   -1.53382587605863
H         0.33078948461780   -1.16345461564119   -2.74178599883181
H         0.25896967688042   -0.17073624002998    0.03252460054638
H        -0.91528608631199   -0.78985414458766   -0.91621377276247
H         1.96383157578748    1.61396668885674   -0.65026517599982
