35
 energy: -49.723695120418 gnorm: 0.117827821016 xtb: 6.4.1 (79825abcba525fcdf90b791dcacef51065a7a4e7)
C         3.83681877475619   -1.21961394836551   -2.70947620770692
C         3.00530336734905   -0.01407573739539   -3.12268825265192
N         3.97136836073216    1.11596929246651   -2.99779361747053
C         3.64147776245875    1.69089399456483   -1.87731951708864
C         4.21384784942675    3.05589240421982   -1.66208297860908
C         3.60113846622078    3.81833431645840   -2.84301131941755
N         4.20447467026499    4.79541161169718   -3.44380263419004
N         2.40543148509361    3.41814227326410   -3.41584724651974
C         1.19902246352461    2.93659966147220   -2.71541811598416
C        -0.07904013750450    3.75472487779456   -3.03457158417060
O         0.07136495881938    5.13624936929047   -2.70713557847457
C         0.94764570199951    1.44419538326257   -3.02495120412603
C         1.80813092436204    0.43829072996720   -2.20783878363755
C         0.86645082788923   -0.71693240349468   -1.74632531701997
N         0.11972629824790   -0.07770493336764   -0.65165974869183
N         2.62338985587222    1.08669274395189   -1.16166258464771
H         4.74188102459009   -1.37334558653514   -3.30906488892297
H         3.20261158438126   -2.07417339782081   -2.96764566807468
H         4.08831383137776   -1.28913408769706   -1.64916264550080
H         2.61968498513208   -0.14042926118541   -4.14349561648738
H         5.29792486174828    2.96570575938369   -1.76843401479513
H         3.99349824432591    3.49170556805129   -0.68561642378413
H         5.11375928456824    4.99425729816092   -3.00807399019573
H         2.25517486300025    4.04663673869439   -4.20851568823716
H         1.44871074141058    3.16179001165429   -1.66971024101083
H        -0.99759488818294    3.46114271944095   -2.51621430212009
H        -0.29115082769571    3.67258518296741   -4.10796873864855
H         1.00145914397693    5.38993581875874   -2.86022134482665
H         1.10715797909927    1.21950284776479   -4.08803130821108
H        -0.09145351939481    1.13504686780351   -2.84852877742124
H         1.47507476760642   -1.51834276005366   -1.32828021641433
H         0.35227747223593   -1.00174007502049   -2.67271134133502
H        -0.38788342595977   -0.78985313965313   -0.13245474023373
H        -0.64481014117917    0.49313553837839   -1.01583041752358
H         2.11268139564586    1.41107224437974   -0.34300008968535
