35
 energy: -49.717748029831 gnorm: 0.120695363027 xtb: 6.4.1 (79825abcba525fcdf90b791dcacef51065a7a4e7)
C         3.27968141177884   -1.49157379225041   -2.97358432801858
C         2.89984776616246   -0.02702183365272   -3.13575202399222
N         4.00930866418476    0.96483417078625   -3.02992122511002
C         3.83480406791334    1.61091715189988   -1.91325057698249
C         4.34063685194550    3.00727983388450   -1.73588263841084
C         3.82721439781409    3.81665796097063   -2.93280645840093
N         4.46144271713404    4.73948554430245   -3.58533118058052
N         2.62468150590553    3.52189181580525   -3.55332031020089
C         1.44678903621562    3.11706328581252   -2.76174580498778
C         0.30686134396141    3.96620505089751   -3.38154816688711
O        -0.75262583935909    4.22208240828134   -2.45934447724020
C         0.97791299600035    1.64738985771142   -2.84228651732730
C         1.86269796639152    0.58772300733459   -2.12519978182368
C         0.79522771293793   -0.39714103050204   -1.55524662643979
N         0.14580078615221    0.19287074473109   -0.37430093272094
N         2.75779780726692    1.22180263768323   -1.13712275915052
H         3.79422596030338   -1.63654008897510   -2.01624094575179
H         4.08325064053162   -1.70830018420354   -3.68523609522856
H         2.44023659697540   -2.18978297322080   -2.98714879951570
H         2.51072635913966    0.15114085660344   -4.14746195736754
H         5.42515663202234    3.05694965771564   -1.86244052979900
H         3.95236883013989    3.38162079694627   -0.78662461891820
H         5.45450326680261    4.89340142701889   -3.37006806363263
H         2.36129508251498    4.23182830640142   -4.24072367196176
H         1.71641863663243    3.49899413729605   -1.76776965143883
H        -0.11541462789070    3.61745473420816   -4.32953751987220
H         0.77304945738477    4.92839263902054   -3.62809030085232
H        -0.97773828046640    3.43733804132397   -1.92421091706877
H         0.87865853729604    1.37623650053999   -3.90185936276685
H        -0.03554651819353    1.67723484004957   -2.41987207868030
H         1.22212354797423   -1.36128822453248   -1.28024939584295
H        -0.08359764626401   -0.54740921717353   -2.19459485068916
H         0.78070007538717    0.27214709305724    0.41627777193187
H        -0.59897524633293   -0.45515555007605   -0.11283264063902
H         2.25663968559921    1.89119424149996   -0.55659808849226
