35
 energy: -49.719471886837 gnorm: 0.109233261989 xtb: 6.4.1 (79825abcba525fcdf90b791dcacef51065a7a4e7)
C         3.38641593662577   -1.49270362569601   -2.51686052766721
C         2.82938414773678   -0.14941346972085   -2.96493593788718
N         4.04335859825885    0.70982376472423   -3.08266191304101
C         3.90709202424251    1.65750498719991   -2.20052806557300
C         4.58685340802557    2.98982568901733   -2.19956495343407
C         3.76064822437474    3.86449114761722   -3.15017922461996
N         4.27953993136607    4.87587527786429   -3.77267286518857
N         2.49451344237445    3.49056258616915   -3.56861674971176
C         1.31619344656042    3.11517822196892   -2.76328730747765
C         0.14999539494846    3.98860305474932   -3.29408195120448
O        -1.11930011163455    3.56270578097238   -2.79815214906720
C         1.02152461059609    1.59915650222720   -2.79675237811137
C         1.91474881814945    0.64072588116205   -1.95799562136448
C         1.01200854661869   -0.32004627614860   -1.12356564871897
N         0.29152426421628    0.46825166424701   -0.11164138462265
N         2.94299794025696    1.41768252689929   -1.23785742456645
H         3.92949710593987   -1.17708265530764   -1.61812589949246
H         4.05301889618640   -1.74080948364963   -3.34946250977419
H         2.62191123983027   -2.26834611146762   -2.43774690886397
H         2.43835984256067   -0.17528607063332   -3.99116447352228
H         5.52924183967065    2.78835962121749   -2.71529996737284
H         4.63511618234179    3.30992222071772   -1.15688432164038
H         5.24355596923140    5.07888012550475   -3.47999612617630
H         2.32246489122235    4.04842484542463   -4.40831585581392
H         1.58986840268308    3.38151257980586   -1.73337085411007
H         0.08868628127124    4.01233639998039   -4.38692480351012
H         0.39405805674636    5.01203593679272   -2.98273347448269
H        -1.83662420841675    4.16653231947785   -3.06964231224228
H         1.02341830073242    1.29238024222126   -3.85124511640964
H        -0.01207395487886    1.53951236318603   -2.42995346677701
H         1.59580095749410   -1.14133042520452   -0.70868962903976
H         0.28111746392047   -0.80141785558376   -1.78520023515026
H        -0.69702595318936    0.25048633252853   -0.21034936266120
H         0.53265193067073    0.10531781556454    0.81200982318986
H         2.44601857753181    2.17869293266479   -0.77946004433772
