35
 energy: -49.726282691571 gnorm: 0.097527743475 xtb: 6.4.1 (79825abcba525fcdf90b791dcacef51065a7a4e7)
C         3.48762049815313   -1.59512141226027   -2.48103052405422
C         2.90435535737718   -0.29924621948226   -3.02508355533502
N         3.90668873365168    0.77137941464156   -3.29889107515110
C         3.87301554111480    1.58930795396421   -2.28662261061641
C         4.66956464523952    2.85492608226352   -2.31620668200903
C         3.77067388131816    3.89700315084833   -2.99251503176367
N         4.22365792385854    5.07076687201042   -3.30352789892373
N         2.52393731431853    3.52747017122241   -3.46906845694839
C         1.30739638280945    3.04133641771739   -2.78965022846625
C         0.04516865581022    3.78916458686071   -3.29181159317637
O        -0.99490357331565    3.75830735223432   -2.31419022050136
C         1.10346997079190    1.53238319753842   -3.04993038295530
C         1.88640665719282    0.52795953057474   -2.15656878116335
C         0.90798350083665   -0.19652264984829   -1.18080740675604
N         0.39301190956148    0.77500718031024   -0.20334332627257
N         2.84743999729385    1.34609141938144   -1.39064966916495
H         3.59333987325067   -1.45206148737625   -1.39907167372544
H         4.42889063341185   -1.87888599092554   -2.96334813240874
H         2.79649513650972   -2.40013892666650   -2.73917816263439
H         2.32101258478673   -0.59373814740461   -3.90808986358292
H         5.60091917763763    2.81513203285187   -2.88687498429387
H         4.86921127184224    3.21867880174477   -1.30635560866908
H         5.22239345362400    5.17495092660884   -3.08473440447599
H         2.33869923798267    4.04065177299138   -4.33407545431965
H         1.44090921859604    3.30658160985927   -1.73211573327798
H        -0.31885831854290    3.35742667950890   -4.22974247410939
H         0.36922439375668    4.81402128308408   -3.51221114952144
H        -1.77208161349312    4.16700144248948   -2.74060632699824
H         1.29669689973647    1.36988669004019   -4.11872805101153
H         0.01852061163806    1.43514101559057   -2.90902711996485
H         1.46826446930799   -0.88742719780932   -0.55137948768922
H         0.08068353106240   -0.71527502825256   -1.68095881706834
H        -0.27634575550021    1.43395167978426   -0.59340614224693
H        -0.00467637494844    0.26501181786720    0.58706406541977
H         2.54609162133191    2.01454507284847   -0.68452478741285
