35
 energy: -49.714318586208 gnorm: 0.119791458321 xtb: 6.4.1 (79825abcba525fcdf90b791dcacef51065a7a4e7)
C         3.34108597132162   -1.46892028379793   -2.62459512408175
C         2.96246348145097   -0.11049270388557   -3.19626283606261
N         4.15450831395553    0.77699535734101   -3.06482440470238
C         3.86553464530930    1.56926998602424   -2.07304643040668
C         4.59309048168918    2.87497027124776   -2.01860205603956
C         3.82556044381979    3.86320321779894   -2.90495156276492
N         4.35807996614361    4.97051067890522   -3.31718685889666
N         2.57793696381152    3.54490990936456   -3.41498571561111
C         1.34246742582882    3.10624067269421   -2.73742296549120
C         0.10825236931293    3.95443879792923   -3.13979712128837
O        -0.62524163177093    4.10305892351215   -1.92392518119278
C         0.96448005827815    1.63627696749162   -3.02483173143992
C         1.86167654393788    0.58384055279622   -2.31253421988859
C         1.00354108840269   -0.46618725926460   -1.54095032758800
N        -0.16271040362855    0.24815719603036   -0.99866678451962
N         2.72831791049749    1.27943708668031   -1.34061079081652
H         3.37731666630000   -1.49898974707994   -1.52912223768297
H         4.23127950318084   -1.93710583940822   -3.05760764301359
H         2.49417642494958   -2.09926609432828   -2.90344284560619
H         2.74110600799758   -0.27062428222358   -4.26025210334514
H         5.59888346434602    2.82264057121994   -2.44323037622945
H         4.66016586284603    3.23745985850530   -0.99094638202810
H         5.34882248893568    5.04366929101597   -3.05398611382336
H         2.35340826243174    4.04492830903395   -4.27839410748805
H         1.48140133784896    3.27374577583516   -1.66076178868353
H        -0.49324806209972    3.34292424718698   -3.82014613486994
H         0.26779905292212    4.98710025130387   -3.47457242147664
H        -1.27989613846136    4.80367924906889   -2.10675269173492
H         0.86364150797227    1.62975052402673   -4.11838520219202
H         0.01632156394663    1.47003160692813   -2.49588671059121
H         1.64641830865081   -0.98141169945451   -0.82772103941864
H         0.45226075935148   -1.15965346574336   -2.18815611272757
H         0.19646712152237    0.98931347789176   -0.40194623661086
H        -0.60903237973199   -0.40931603215209   -0.35716796443367
H         2.29175892551297    1.96078769676205   -0.72300972288276
