35
 energy: -49.721555269323 gnorm: 0.111139509062 xtb: 6.4.1 (79825abcba525fcdf90b791dcacef51065a7a4e7)
C         3.55195254444880   -1.43097024692348   -2.57414408460731
C         3.09520062873193   -0.07559585233377   -3.09358838926338
N         4.14332909861010    0.97577239544811   -2.94548868854754
C         3.74053194082905    1.66664839024347   -1.91822376391997
C         4.32646958328021    3.01946607408723   -1.66580286139417
C         3.69215971014943    3.90253387707913   -2.74708192976622
N         4.22814582065468    4.83826617226215   -3.46594824206159
N         2.45638694921637    3.55165576033134   -3.26453731462217
C         1.20907363724133    2.96400760988255   -2.73843264961518
C         0.05105385356159    3.82778134867578   -3.30191905079647
O        -0.25963643094815    5.01416771340250   -2.57088902933669
C         1.08476827368444    1.46939979310941   -3.10852342228291
C         1.86626190403967    0.43173557833343   -2.25267742429904
C         0.88886272577561   -0.61256451238079   -1.62944013735108
N        -0.27617920712889   -0.00617537750832   -0.96651368674579
N         2.67483831835532    1.11931577595902   -1.22652217439658
H         4.53378355823588   -1.74888157488345   -2.94457346889224
H         2.89514412359282   -2.29011338109094   -2.74624246163273
H         3.66323950816086   -1.33228520060032   -1.49237509702577
H         2.95500039059233   -0.07073946113075   -4.18309962301883
H         5.41419030655287    3.04147467044712   -1.77090461568561
H         4.18194926026400    3.43278556845012   -0.66567543847704
H         5.24872677840895    4.90976579782799   -3.36848092541526
H         2.43760072051810    4.17387104416804   -4.07595632994760
H         1.29601212476215    2.98870763166872   -1.64372196066815
H        -0.92167450039170    3.34050245813568   -3.17950001141490
H         0.17695370081417    4.21431517219624   -4.32106582743568
H         0.56569037754488    5.52880792997550   -2.48813417029324
H         1.31046468416332    1.30301091849025   -4.17033606085252
H         0.05385989669714    1.13424957100632   -2.93152872307415
H         1.38955183215090   -1.29701192020141   -0.94512623283899
H         0.46085695380790   -1.28681223690105   -2.38169127166104
H        -0.11925342628353    0.26319686521607    0.00158208852358
H        -1.03024919881234   -0.69288996641480   -1.01939663280864
H         2.15426863065128    1.71815570612579   -0.58882991346541
