35
 energy: -49.718423223859 gnorm: 0.132218502841 xtb: 6.4.1 (79825abcba525fcdf90b791dcacef51065a7a4e7)
C         3.67280704416934   -1.30681556101805   -2.70548096075449
C         3.02887979957069    0.01977981056613   -3.08096313874060
N         4.06984582585522    1.06621238433802   -2.86359107326019
C         3.63928296194201    1.70983947292212   -1.81707866614496
C         4.05270377878814    3.12949305417000   -1.59164156963091
C         3.61423254196534    3.86490365449114   -2.86374079243706
N         4.33763461950714    4.62587171216521   -3.62351830528564
N         2.38816070733706    3.51420447069165   -3.40389613857595
C         1.19603825342110    3.01226227336567   -2.69339979226084
C        -0.02546190554612    3.86182306140182   -3.13022431948897
O         0.30717102968395    5.20798471880464   -2.79015066774772
C         0.83844328800335    1.51993612987026   -2.87048750656676
C         1.82855660824351    0.52567780087002   -2.19886434533502
C         1.02485641776463   -0.71909042833170   -1.71007540548746
N        -0.19991387849573   -0.32309556774720   -0.99759539136114
N         2.58072744188935    1.17347701988227   -1.10609165857110
H         4.60363198796519   -1.35110988800438   -3.28330499938001
H         3.15851735829568   -2.19838807801682   -3.07930798602051
H         3.69195721816029   -1.38205024628714   -1.61629746854543
H         2.78171617144395    0.21066834564982   -4.13414219800909
H         5.11966910999121    3.24974364057488   -1.38721085998427
H         3.51550535213010    3.63976916224060   -0.78976243117941
H         5.26851120714369    4.74203103448680   -3.20378820078030
H         2.35073294982158    3.80139914665624   -4.38472434715124
H         1.25213238048739    3.11042442822718   -1.60079852523650
H        -0.91864132251156    3.61592696595161   -2.54679203168103
H        -0.16838364617170    3.64273114725430   -4.19581872725543
H         1.25890296691865    5.30109435196976   -2.98612050719593
H         0.91771505083036    1.37532177843236   -3.95624663748159
H        -0.17637648392195    1.28591315730700   -2.52149044901699
H         1.62938614094554   -1.40824255124126   -1.12096037301122
H         0.63958138986067   -1.16460752685234   -2.63568784269394
H         0.11990521514769   -0.33153896774501   -0.03217268688477
H        -0.88252279037253   -1.08269479171967   -1.00460815342013
H         2.32204080816579    1.60943941608240   -0.22332810830100
