35
 energy: -49.720337496196 gnorm: 0.103152278223 xtb: 6.4.1 (79825abcba525fcdf90b791dcacef51065a7a4e7)
C         3.54415200335384   -1.45856369823854   -2.16123545326380
C         2.98779031778455   -0.26714826879215   -2.92705228494551
N         4.10423722358528    0.71186811175913   -3.07181158737496
C         3.84830286333295    1.68116322670098   -2.24127380414954
C         4.55828843564467    2.99745206428794   -2.26270075690343
C         3.80840950655497    3.91766232170888   -3.23337931245263
N         4.40238361121486    4.75132091355861   -4.02827108277033
N         2.42845115487203    3.85981879201425   -3.33525627901705
C         1.38858956569491    3.03578803756181   -2.68906112533837
C         0.09462828992877    3.84627603471158   -2.95999522103472
O        -0.84529838321967    3.68943258391853   -1.89680006130908
C         1.20326109143557    1.58185201404358   -3.17690840533588
C         1.90596334995502    0.60565929878693   -2.19039481251951
C         0.78886080823596   -0.17213555661046   -1.42788994127538
N        -0.23992878578089    0.69563622081326   -0.83369628643313
N         2.84869596365902    1.35975687018079   -1.34060127961245
H         4.10564663134654   -1.03822573590120   -1.31843211374950
H         4.20247097882920   -2.01429872918806   -2.83719165682626
H         2.73660424051182   -2.10621160403536   -1.81372074353340
H         2.54876734301956   -0.52009663922806   -3.90172678778123
H         5.56989605475028    2.91812285467805   -2.66893227003975
H         4.65243285199643    3.40877113677273   -1.25576111278001
H         5.39642682487077    4.51072119011606   -4.12920387903059
H         2.10337407452528    4.67026652476340   -3.86761420662202
H         1.54636622841178    3.16364167268792   -1.60956130012209
H        -0.38881240587345    3.58065043261785   -3.90569904998526
H         0.39895950049708    4.89977874215473   -2.92212835553565
H        -1.06062549802486    2.73732887826762   -1.89662740135232
H         1.60016077696342    1.34506296551858   -4.17313719821842
H         0.12802147859785    1.36371911740155   -3.12492085385286
H         1.22235501110689   -0.98564578211963   -0.84674688074157
H         0.29409996432839   -0.72647644454449   -2.23510652396265
H        -0.20842755750740    0.74052458031849    0.18187707265219
H        -1.16077405456797    0.31647874594891   -1.06014426669726
H         2.44453897300235    2.00799184274054   -0.66776992238390
