35
 energy: -49.718906845454 gnorm: 0.102370461221 xtb: 6.4.1 (79825abcba525fcdf90b791dcacef51065a7a4e7)
C         3.58184454596630   -1.41581658241544   -2.49914808316840
C         3.07966286630822   -0.15170086165939   -3.18128404247751
N         4.05326581990395    0.97359523576154   -3.07317301515690
C         3.67285644097755    1.65688271205380   -2.03238708348934
C         4.23183411541736    3.01609868014477   -1.75448270029373
C         3.58683703721545    3.97556720902669   -2.76181635662207
N         4.08816806172667    5.04055795601483   -3.30413242905892
N         2.38125135636323    3.59596720246888   -3.32792311203419
C         1.21707065212768    2.88930784739793   -2.75939620813353
C        -0.08165921514819    3.57852699865302   -3.25225475430624
O        -0.06758715126010    4.92627073615506   -2.78126137605675
C         1.06915584430920    1.42385584225226   -3.22506047041745
C         1.85271652191298    0.39397096704087   -2.36174040769310
C         0.85777504264462   -0.52333762225967   -1.58525281106461
N         0.22669022106256    0.22701233283963   -0.48834403081156
N         2.65401161865822    1.05715949431475   -1.31404574034146
H         4.41121782952483   -1.78905461495957   -3.11161115541758
H         2.84065191129262   -2.21803929827496   -2.42031741314382
H         4.05047612935956   -1.22226187943489   -1.53205517917020
H         2.76133236121744   -0.31096555505012   -4.22052168332672
H         5.30792042397342    2.82521852357935   -1.73804638604680
H         4.04496642544524    3.38078361621309   -0.74252451830741
H         5.05480269713399    5.24335227989348   -3.02007344210951
H         2.14346683590412    4.36397233253529   -3.96000875039600
H         1.31014206284138    2.94115821295064   -1.66613999355192
H        -0.99971139865990    3.10082020925941   -2.89503772279118
H        -0.02643330725642    3.51361113414243   -4.34617219502544
H         0.76990268630679    5.31567242796437   -3.09724295234607
H         1.24795173797945    1.38342503721828   -4.30786589854657
H         0.01091909294748    1.12965292712640   -3.22293733091715
H         1.41134243856777   -1.42734920264588   -1.33272644309496
H         0.02861811956014   -0.81076147695511   -2.24371088747495
H         0.68630189304768    0.35175169306010    0.41031816309101
H        -0.65139662191566   -0.17859969416598   -0.16056748387208
H         2.19204719869190    1.59261732549671   -0.58183861493434
