35
 energy: -49.725602948661 gnorm: 0.114472632698 xtb: 6.4.1 (79825abcba525fcdf90b791dcacef51065a7a4e7)
C         3.68479387317516   -1.28657198886616   -2.66933729055339
C         3.07205170176081    0.04047349370696   -3.09239965104478
N         4.02956101641522    1.17433655233354   -2.93938828533968
C         3.65771847514677    1.81623861607984   -1.86956432807831
C         4.05516320313123    3.25534949394358   -1.77927299318962
C         3.66259166663654    3.69209642078887   -3.19576933991965
N         4.37521455260207    4.14732863842295   -4.17789817767484
N         2.35472034090953    3.42298427049070   -3.56327592428187
C         1.23050510552024    2.98447426164211   -2.71371366294027
C         0.04995934561983    3.91889305747343   -3.08493467546612
O         0.09333826049536    5.12328063203237   -2.31941864650265
C         0.84394448686503    1.48944311373907   -2.75523796851556
C         1.87441376449615    0.48044761197780   -2.17213178204000
C         1.01053687769056   -0.63800701199856   -1.51101716510734
N        -0.13871799048000   -0.13615654192875   -0.74169192524081
N         2.61219455996567    1.25749336506542   -1.15653523696442
H         3.95981604616503   -1.12407939082389   -1.62041563329358
H         4.59006365729495   -1.41801042493822   -3.27129462994124
H         2.94239381573481   -2.07989845846530   -2.77807060916324
H         2.66667900061374   -0.01097012169077   -4.11207653356468
H         5.08338536870433    3.45733612358494   -1.46842301744295
H         3.42018015748293    3.62119692334468   -0.96999788839755
H         5.39301800400753    4.21550261256978   -4.05289416503676
H         2.13976523033545    3.52865559110646   -4.55752612359586
H         1.44728424208474    3.19739262364852   -1.65814156220170
H        -0.86955284780868    3.39978446201353   -2.79570953135776
H        -0.05123064220210    4.23961431782834   -4.12935689843121
H         0.93622783784716    5.60303762434306   -2.43004254620665
H         0.65307352973940    1.16613154575727   -3.78727871825738
H        -0.05472390991580    1.44014417241928   -2.12564317703331
H         1.68569141791327   -1.24482945500586   -0.90821020630356
H         0.62426431295549   -1.24827759476885   -2.33687673595070
H        -0.59342569621055   -0.97023169377050   -0.37843432579633
H         0.31372762357850    0.34136201437910    0.03950208534092
H         2.14134281299769    1.76459561920384   -0.40994336885156
