35
 energy: -49.716281976134 gnorm: 0.104204361922 xtb: 6.4.1 (79825abcba525fcdf90b791dcacef51065a7a4e7)
C         3.59278799493167   -1.35624996886337   -2.68577099227207
C         3.02625920758448   -0.01461746349823   -3.12685121164669
N         4.04190160051754    1.05583821807003   -2.90667598574965
C         3.62933895004945    1.78082358711683   -1.90716777309833
C         4.06990286611372    3.18656494409276   -1.64842160931641
C         3.53074121578396    3.93218862465035   -2.87507243090324
N         4.09952881272375    4.96613525509643   -3.41087076415887
N         2.50803565086736    3.36446677349710   -3.61654063355422
C         1.27679573212577    2.97509105247760   -2.90215852890339
C         0.07768931170477    3.91007911973119   -3.20641651549689
O         0.26681606758759    5.02435426297792   -2.33402443803701
C         0.91401393466673    1.48406431873244   -3.07964133323568
C         1.77417882932291    0.45141992738108   -2.29624263168608
C         0.97117921099595   -0.70616897246150   -1.62581290771410
N        -0.10944841209763   -0.33659046157661   -0.69836609273601
N         2.50722388914543    1.25154690514485   -1.29524380398077
H         4.25316367750361   -1.13699424488651   -1.83835812837359
H         4.27950575724218   -1.69592379353468   -3.46819190232615
H         2.85242201936249   -2.13939709250344   -2.51002555408314
H         2.88555768101269   -0.12014121759903   -4.21118612608143
H         5.13069230153746    3.43805841179123   -1.57003833827791
H         3.63758775836369    3.58878086538134   -0.73010794116921
H         4.98129771656935    5.15119783935465   -2.91646909411203
H         2.58645448696815    3.69575833517638   -4.58090673545400
H         1.49511044349421    3.22327044214647   -1.85463499068909
H        -0.84362078758385    3.37679965007699   -2.95062695310648
H         0.15639822504062    4.23288323341689   -4.25213241243920
H         1.22981191613124    5.17570290034472   -2.28303574118845
H         0.92769162968167    1.23173107158019   -4.14838407107019
H        -0.07636232646569    1.24174358540516   -2.67115585863023
H         1.69750003000132   -1.29939079004274   -1.07084508473978
H         0.49891963481402   -1.36011242909616   -2.36945901216104
H         0.21151217476243   -0.17895904571253    0.25375426102157
H        -0.65845425215482   -1.19280320015475   -0.60623892639233
H         1.97639799625516    1.84649661971835   -0.66238349288347
