35
 energy: -49.721550359371 gnorm: 0.117124180949 xtb: 6.4.1 (79825abcba525fcdf90b791dcacef51065a7a4e7)
C         3.52353245626862   -1.34966133894870   -2.70627235549685
C         2.85132842495553   -0.00891087080416   -2.96320490226354
N         3.90615013615412    1.02978306207941   -3.14853718935838
C         3.77844697066590    1.78854359990811   -2.09839302812192
C         4.29301512950392    3.19295064378859   -2.09446910103550
C         3.63378439958449    3.82484287397464   -3.32631699034360
N         4.10744072898387    4.40991036991351   -4.38130064055792
N         2.31649469173789    3.44538559135692   -3.52321753940883
C         1.30526845477241    3.09379540485374   -2.50748491259700
C        -0.04039541541467    3.80080089654491   -2.81402003995064
O         0.04492982934462    5.20259401120864   -2.55683992147433
C         0.95540464075253    1.59212488783404   -2.41339747900807
C         1.97764665934932    0.59205134074376   -1.80116731509669
C         1.22938048028424   -0.47564457476921   -0.94418444246281
N        -0.21151086863041   -0.49625252202025   -1.24067959654135
N         2.98851884787621    1.35939773137093   -1.04693006475838
H         3.96496254369595   -1.43058052226138   -1.70583783266275
H         4.36333853982790   -1.51883664736177   -3.38836291403204
H         2.88603480901067   -2.20875158770303   -2.92515211750882
H         2.26542916771340   -0.04961986192921   -3.89152555744678
H         5.38054902561112    3.08409461783252   -2.08511416242259
H         3.93819462173575    3.74897713802791   -1.22446281312511
H         5.09265987623142    4.69641478212170   -4.32251277387443
H         1.99926979959138    3.76502507209325   -4.44142478687064
H         1.62022795756087    3.38308427371236   -1.49571798111924
H        -0.83580650222319    3.50154757925958   -2.12380540619431
H        -0.37508251239207    3.52624449934851   -3.82224752029309
H         0.61605976274716    5.61874141544966   -3.23026341113971
H         0.53907261222657    1.22127173252164   -3.35955061592389
H         0.02196233594080    1.49367436955276   -1.84294343194010
H         1.41758830405375   -0.19480799121120    0.09174604574160
H         1.64089068205079   -1.49128533053012   -0.99723054011413
H        -0.52217650219514   -0.90728924513990   -2.11756739139915
H        -0.68918679530391   -1.04901777888073   -0.52704708612104
H         2.64022328593204    1.88972542719377   -0.25087968851375
