35
 energy: -49.721066371725 gnorm: 0.113289970145 xtb: 6.4.1 (79825abcba525fcdf90b791dcacef51065a7a4e7)
C         3.54442913253937   -1.45905994230206   -2.57202127909327
C         3.00653653993296   -0.15524064792712   -3.14317034424776
N         4.03011574925665    0.92062664555896   -2.99937475460875
C         3.66995344415023    1.61445028529396   -1.95835588436361
C         4.22624588255034    2.94861610567963   -1.57404452935365
C         3.66416798926961    3.92049891648430   -2.61847472665837
N         4.24528348648274    4.99015957048106   -3.06319450139260
N         2.47053983611216    3.69287588706232   -3.28289133625383
C         1.24541705158805    2.98954173922022   -2.85592272644779
C        -0.01292321531289    3.75456301712145   -3.34167372706743
O        -0.07689039767295    5.10697560559136   -2.88853540027635
C         1.09785971562903    1.50235921909183   -3.24680185729069
C         1.74685685767423    0.38981353893223   -2.37445072799072
C         0.79826675027338   -0.67054081471634   -1.73404305262853
N         0.25534737508965   -0.05123780347914   -0.51494325949281
N         2.52149965866912    1.12968295656122   -1.35853797271133
H         4.38192656867248   -1.83730859962220   -3.17018821255248
H         2.78799228218443   -2.24839704653967   -2.63440964180173
H         3.90993118904008   -1.27677466696720   -1.55933771852636
H         2.89076407246299   -0.26959918454669   -4.22955576372761
H         5.30110092733140    3.04852300849644   -1.74542827657737
H         3.86598702527452    3.34674394142020   -0.62342274079130
H         5.11597836540523    5.33579514269397   -2.64055513004627
H         2.31155470584040    4.49645990840815   -3.89516745573091
H         1.11622459556041    3.14696283457707   -1.77653040344224
H        -0.79387618509143    3.30404211310467   -2.72056908689349
H        -0.24293540679485    3.64349244768991   -4.40876183940429
H         0.83035624282310    5.46693694926358   -2.87444197082033
H         1.48866504101194    1.43407283749499   -4.27085184397009
H         0.03805452343099    1.25223616502921   -3.39059434722132
H         1.21993577187221   -1.67290625369827   -1.66402796159162
H        -0.03427178628597   -0.78427827606451   -2.43946780668115
H         0.90410440554852   -0.31236670943808    0.22351631965267
H        -0.57384876964845   -0.54597902362708   -0.18228733578996
H         1.94005913584543    1.70264251573315   -0.75034577772160
