35
 energy: -49.723099502415 gnorm: 0.111860420341 xtb: 6.4.1 (79825abcba525fcdf90b791dcacef51065a7a4e7)
C         3.85342869274374   -1.18652476760758   -2.71226919864856
C         3.05606728728909    0.00754178852342   -3.21615838132529
N         3.94121946820569    1.19675532850272   -3.04835256272854
C         3.66922421627497    1.67293786797614   -1.86763362355905
C         4.18460657728637    3.05056890745681   -1.59621383739841
C         3.67145720478286    3.80363305433554   -2.82945928061558
N         4.40590901818714    4.55536662706040   -3.58782725823993
N         2.34936677041193    3.68763653678392   -3.22522632261389
C         1.20837035024937    3.02201439840685   -2.56721315744335
C        -0.07102913336355    3.82352704738881   -2.92125592275499
O        -0.04894241444060    5.08865910445614   -2.25989443443680
C         1.02347555371848    1.55861980516287   -3.02608321383325
C         1.81962588634143    0.41573692693828   -2.33332417856021
C         0.80564601544737   -0.71254298335029   -1.96846004877757
N        -0.05548273058092   -0.16058419819988   -0.91096264216385
N         2.62796785403715    1.00556487141331   -1.24785505879594
H         3.82360638439691   -1.07139094818044   -1.62225428076999
H         4.90524680214859   -1.19966390282865   -3.01665072044035
H         3.48030909884545   -2.12330670765152   -3.13127878680586
H         2.89073616513981   -0.11017362244273   -4.29575234448488
H         5.27495054612152    3.09041983383573   -1.66124523094349
H         3.78388430347665    3.38048845102826   -0.63571981993175
H         5.40064036000604    4.68464873973564   -3.36423553919971
H         2.18868570114412    4.01872665680960   -4.17941001825727
H         1.22841635934588    3.06664085766303   -1.46986794073676
H        -0.98212544367892    3.36395032846117   -2.52461962978996
H        -0.02904263456065    3.91746628061269   -4.01365323590078
H         0.31556261932446    5.78735771869658   -2.83593574167116
H         1.11049196519302    1.47207006503965   -4.11741611285690
H        -0.01888020882077    1.26970509944428   -2.83517055200649
H         1.30642104627875   -1.54346565817581   -1.47223909036650
H         0.27901809626527   -1.08102258781811   -2.85759812756401
H         0.50238343504804   -0.15797117958423   -0.06056564413494
H        -0.91764721900125   -0.69666686479613   -0.80013459780536
H         2.09054111488954    1.37556114200076   -0.46649167122059
