35
 energy: -49.724885660761 gnorm: 0.117909118665 xtb: 6.4.1 (79825abcba525fcdf90b791dcacef51065a7a4e7)
C         3.66108937349341   -1.52308138862209   -2.49793186957871
C         3.10633059312396   -0.23659251447709   -3.09179509120020
N         4.08751185942188    0.88549447400340   -3.02787227072168
C         3.75191659650198    1.59406998037269   -1.98858164348586
C         4.40540908072432    2.92129898594403   -1.76820539885586
C         3.67392705498337    3.93311214573741   -2.65842467508394
N         4.19077738399085    4.96972932839786   -3.23974675647722
N         2.38744996792629    3.70524437173416   -3.11784041313694
C         1.22091757827611    2.93471957080569   -2.64518759170036
C        -0.08322266274393    3.64324943765779   -3.09444864283456
O        -0.16583577846968    5.03197224724057   -2.77340349834619
C         1.18914407125941    1.49066737600491   -3.19288756573665
C         1.89275726302556    0.40769689380874   -2.32567644981996
C         0.88338071035101   -0.51818175858746   -1.57854575627556
N        -0.37710147800871    0.15412865655842   -1.22685649590589
N         2.70076634306407    1.05170179476374   -1.27119269603392
H         4.33770310218053   -1.92791901919854   -3.25988858797949
H         2.84445256631697   -2.25175318672655   -2.46210144282347
H         4.11218243425322   -1.44908268443353   -1.50627320430945
H         2.77450484109578   -0.39148803916123   -4.12746563570269
H         5.47075777108819    2.91474008895920   -2.01245175934605
H         4.16419630302027    3.09220315862521   -0.71721435858136
H         5.16655151852526    5.22332034911820   -3.04036272478285
H         2.07118177185214    4.42337990800580   -3.77370730663708
H         1.22537925024717    3.01987539695671   -1.55006729388624
H        -0.87772471889820    3.23544087300209   -2.46113493285873
H        -0.25947260977156    3.53564855690964   -4.17207442868798
H         0.58242448814235    5.46971918982317   -3.22212551472080
H         1.67417700875540    1.72103647946265   -4.15087678521553
H         0.12295188966714    1.25305343859883   -3.30777328728827
H         1.44981414424625   -0.83710070076685   -0.70396743456905
H         0.62932372009206   -1.39421502794891   -2.18821900231388
H        -0.30344553669994    0.96422003830639   -0.61634581417479
H        -0.87682838867068   -0.53561115029901   -0.66336106422852
H         2.22663524153908    1.73465459533949   -0.68380128615603
