35
 energy: -49.725103140267 gnorm: 0.117175224931 xtb: 6.4.1 (79825abcba525fcdf90b791dcacef51065a7a4e7)
C         3.72443187793766   -1.26908238779638   -2.93460464750031
C         2.97658165181434    0.02340990440699   -3.22729584080420
N         3.95432132925419    1.11985240371929   -2.96706332050307
C         3.58919466189476    1.66271214324011   -1.84153489658375
C         4.02348965889477    3.05903061580414   -1.52715056750346
C         3.60138618132133    3.87534221689141   -2.75466276535323
N         4.42493943558974    4.73239782521682   -3.27124819737916
N         2.39840919961739    3.53642834392353   -3.35131474289301
C         1.18340699176929    3.00958701992361   -2.70007377675446
C        -0.06817923067000    3.84637010785187   -3.07150045024335
O         0.13617855565012    5.24068964688447   -2.84224762305554
C         0.99164705588059    1.52603728121732   -3.08553425444104
C         1.76414926109462    0.42233744312956   -2.30769196266593
C         0.92450343666631   -0.73720873190612   -1.68741456285334
N         0.02394989020942   -0.26914833292803   -0.62232079992215
N         2.53337118337120    1.03411146531585   -1.20606267358511
H         4.03328678771972   -1.24554757621143   -1.88278126140492
H         4.63874602295150   -1.27624846852595   -3.53719934370005
H         3.04256461798696   -2.09015237645184   -3.16536161267559
H         2.72388360464000    0.17724959342355   -4.28521429426507
H         5.11561442966855    3.02299110037670   -1.50201537011888
H         3.52188038315300    3.36647035058752   -0.60745337062641
H         5.27778362657042    4.92687659797611   -2.73177405472656
H         2.41713042994105    4.09822123632990   -4.20568225363234
H         1.39126765657937    3.17400803620483   -1.63409087854941
H        -0.81601489347835    3.46814401092950   -2.36700458118933
H        -0.41011934942781    3.73070013857431   -4.10765522840903
H         1.07688836357511    5.41837725312069   -3.03292911510780
H         1.36760249351568    1.46696632763692   -4.11569847860010
H        -0.08442423007047    1.30601455267193   -3.09477720218837
H         1.63224562009438   -1.52365209810516   -1.42654835555117
H         0.23844821677346   -0.98108423051183   -2.50810553966644
H         0.58451651724145   -0.15320199619766    0.21834443659089
H        -0.57942157989368   -1.04693390057888   -0.35031425138519
H         2.02186835159414    1.56616494424358   -0.50496537634026
