35
 energy: -49.719844400068 gnorm: 0.100025686905 xtb: 6.4.1 (79825abcba525fcdf90b791dcacef51065a7a4e7)
C         3.43073012721304   -1.47782195929182   -2.75419209465587
C         2.81905204078706   -0.13302050971251   -3.11866899281492
N         3.99800806290623    0.78113491660320   -3.13493403717808
C         3.85775507567431    1.61865694444873   -2.14816437521674
C         4.53898944905799    2.94697574811926   -2.05519225386582
C         3.81871647975192    3.82365159576391   -3.08668074217534
N         4.31540977650043    4.90405015108073   -3.60212184556979
N         2.56208424925553    3.39759956358985   -3.48337323727897
C         1.30671559160047    3.08760955266242   -2.77213299335223
C         0.24464465325291    4.01976653414460   -3.41066294590888
O        -0.90760300281986    4.26920874441307   -2.60533700357026
C         0.89699142367579    1.59843983522234   -2.79990303493210
C         1.83227242436074    0.56378211901306   -2.11092950139029
C         1.09947531461696   -0.41279615107595   -1.13953883397931
N         0.04249510505500    0.34274173067568   -0.44927995447656
N         2.81691263425341    1.30066364317550   -1.29420052601654
H         4.09565231257594   -1.26455198163393   -1.90880928985896
H         4.02963766125633   -1.90826224928116   -3.56361966992362
H         2.86001019916011   -2.35648909390283   -2.44666894943939
H         2.36758015330270   -0.16281641205153   -4.11966836922919
H         5.61174681991728    2.91255441828899   -2.26176894365691
H         4.35838952778834    3.43898874434773   -1.09744443468546
H         5.19221058296624    5.17858712429596   -3.14163584033498
H         2.39062436742470    3.81904487948938   -4.39928314403084
H         1.22431174132148    3.39984498520197   -1.72223846615950
H        -0.07421218236510    3.70211047562337   -4.40868726006284
H         0.60099742079111    5.05731345682593   -3.43136118957647
H        -1.32183383974781    3.47438629706173   -2.21863641029206
H         0.69758439339513    1.21605500590315   -3.80989752989597
H        -0.00786259315789    1.56512787043779   -2.17816804401145
H         1.78338291662349   -0.82780541008294   -0.39961920176518
H         0.55346263922964   -1.19585900855273   -1.68024524675469
H         0.35327315261185    1.01674352524035    0.24608694353498
H        -0.67088268807177   -0.28022695942538   -0.06718412869151
H         2.51702079506245    1.85081245422789   -0.49191962508319
