35
 energy: -49.717068877292 gnorm: 0.130647977168 xtb: 6.4.1 (79825abcba525fcdf90b791dcacef51065a7a4e7)
C         3.58333253833349   -1.31605516194271   -2.93683206247470
C         3.02927292384421    0.06784462857607   -3.24232141904995
N         4.04222254717859    1.11034956616487   -2.90616891434948
C         3.69831168997429    1.67637965619324   -1.78538183845158
C         4.14800339665696    3.06834131139483   -1.47333208219926
C         3.62568428471227    3.79609834529517   -2.71786999856514
N         4.27784714066556    4.58704090639647   -3.51080018459197
N         2.40005593542625    3.47090009989735   -3.27472822661795
C         1.16594620052175    2.98109785481523   -2.63054356062624
C        -0.06382289963443    3.77711073669141   -3.13913305956328
O         0.20378132200175    5.15777088636623   -2.89293904445214
C         0.85616859951152    1.49873217627332   -2.93534081088389
C         1.85712609659622    0.50030242655701   -2.28636176435344
C         1.10439494763134   -0.70887646320234   -1.64951109351083
N         0.06964830102519   -0.08360247298328   -0.81115926027772
N         2.55120681521290    1.19239348385864   -1.18236047132713
H         4.26183465181326   -1.65803733727547   -3.72737665483981
H         2.74798693229107   -2.01598240593412   -3.04379771527265
H         4.07955350417786   -1.41463429696123   -1.96915723676935
H         2.84373279944479    0.23569699181646   -4.31195446399061
H         5.18238840877619    3.31781147895420   -1.22337328290380
H         3.57381709716255    3.28339385471921   -0.56998469709943
H         5.17344073171344    4.88401605940978   -3.10347299139581
H         2.33458857169111    3.74956181975330   -4.25654656898284
H         1.22133165402257    3.22258494421821   -1.56041445075655
H        -0.95830531667489    3.60692371074922   -2.53121433687190
H        -0.19852637081527    3.72144598478719   -4.22664201805969
H         1.14235551929382    5.29876705449076   -3.12111839985573
H         0.90125200122021    1.31338978992484   -4.01686098711938
H        -0.12460172693483    1.23915574554047   -2.51446729691194
H         1.71820738083109   -1.11406456922931   -0.84545869642265
H         0.73256028650061   -1.41601299699288   -2.40142705024446
H         0.02804111909822   -0.60241803215945    0.06262320611864
H        -0.82685904727193   -0.32659395583195   -1.23568817749139
H         2.08601268822261    1.60110899201740   -0.37440037120685
