35
 energy: -49.711683215607 gnorm: 0.103500216460 xtb: 6.4.1 (79825abcba525fcdf90b791dcacef51065a7a4e7)
C         3.67346432929211   -1.56922883419502   -2.81844724878771
C         3.02938140955201   -0.24452552560880   -3.20028851469115
N         4.09079210954216    0.80355121324667   -3.22900202417812
C         3.85150670050354    1.57032944049269   -2.20449138674667
C         4.38798412677440    2.89724044072632   -1.77014809015509
C         3.57221019215531    3.88606466885292   -2.61161213102665
N         3.94795276865678    5.12435811480670   -2.68296816715652
N         2.40291935403794    3.56378842449909   -3.28012302838619
C         1.18396821880802    2.91077776020363   -2.76471813670000
C        -0.03957462648538    3.63367603912054   -3.38519604319536
O        -0.10744626075928    5.00127079836936   -2.98081506286149
C         1.05340180959584    1.41929337140337   -3.14511041143858
C         1.90256394728081    0.41069979147994   -2.31951103375234
C         0.96490771856729   -0.44147860237756   -1.40907744543535
N         0.05614502933436    0.46597867657487   -0.69132147782887
N         2.76446579317448    1.21157528481115   -1.42772597371002
H         3.92023261854609   -2.25869986030666   -3.63454331292867
H         3.01523844813234   -2.07368925833814   -2.10332457014758
H         4.64041435076755   -1.26777828715041   -2.41042410161533
H         2.67147013027228   -0.36338850774507   -4.23202758841176
H         5.46377803140318    3.07161335602572   -1.85338683165486
H         4.12205792506743    2.90877930209047   -0.71131660335591
H         4.66104914893712    5.39394139645764   -1.99375414012156
H         2.10032309369831    4.46418873605789   -3.65909585325303
H         1.17989903088658    3.07436677087778   -1.67854044901273
H        -0.93714451063775    3.02371416009916   -3.24048113180842
H         0.14116079740096    3.67554786689125   -4.46663064220375
H        -0.02587396311975    5.11381164865151   -2.01461230080064
H         1.29055249819427    1.34019437608618   -4.21449018868902
H        -0.00495112409045    1.14740285313551   -3.03380233013829
H         1.63332635143264   -0.85809520797514   -0.65602333242184
H         0.46262584590578   -1.23176937155942   -1.98077152106485
H         0.08406951185026    0.41372231957118    0.32400410088661
H        -0.90545381102029    0.50587947455165   -1.03298019330732
H         2.30012376073717    1.56652390000738   -0.59426845862617
