35
 energy: -49.716753089016 gnorm: 0.125439081200 xtb: 6.4.1 (79825abcba525fcdf90b791dcacef51065a7a4e7)
C         3.61037930967984   -1.40177674739547   -2.57694465452502
C         3.01558468709107   -0.11471420638132   -3.12937006190031
N         4.05242951889338    0.95483663340286   -3.04632906549892
C         3.66025636301286    1.62623769080045   -2.00217905118242
C         4.12257478049325    3.01745584801225   -1.70565140063812
C         3.61496204631383    3.92950629997862   -2.82895699578132
N         4.21174146775015    5.03022384548038   -3.16350145165764
N         2.42198180769316    3.50879590454153   -3.39270405454747
C         1.21999152338753    2.93956760305078   -2.75309051189392
C         0.07726856641567    3.81016484069675   -3.33693684297785
O        -0.02132079056954    5.11876931908996   -2.77454870576236
C         1.06674599045785    1.45403084170387   -3.14801821663313
C         1.80456854117244    0.40355411051368   -2.26934408274841
C         0.87967858471195   -0.69124607365217   -1.65266938099877
N         0.17482938172389   -0.13634537235235   -0.48657556492893
N         2.58742774782697    1.15393630287114   -1.26753821890793
H         4.49000355218641   -1.80441024969821   -3.09310852096486
H         2.87617473344313   -2.21284614542787   -2.52948778401371
H         3.97381380625875   -1.28890308191274   -1.55345915309800
H         2.82275719574910   -0.28533866448914   -4.19727421355359
H         5.21233725194199    2.93458457018564   -1.69091228772172
H         3.77372478255183    3.33338150883077   -0.72052772836816
H         4.95827215328281    5.39564324872463   -2.55905281855498
H         2.22301540251382    4.07377441320687   -4.22162941475952
H         1.27842773484914    3.09460386752260   -1.66722272362371
H        -0.86521316179273    3.29588526034773   -3.12275863898181
H         0.15755197065794    3.71873585463315   -4.42740217895863
H         0.86592623115363    5.50370755503538   -2.90677025707550
H         1.53531880623915    1.44797377983751   -4.14123171528639
H         0.01756394716683    1.12932926515995   -3.16253728749396
H         1.37291884938594   -1.49805262429069   -1.11117091362388
H         0.23884301159727   -1.13659115535993   -2.42382321179655
H        -0.25303415774591   -0.77391699662580    0.18038151863985
H        -0.44826591663339    0.64460388093843   -0.69839057015954
H         2.00990821752387    1.79485034137008   -0.72721065486503
