35
 energy: -49.718122340869 gnorm: 0.120263939322 xtb: 6.4.1 (79825abcba525fcdf90b791dcacef51065a7a4e7)
C         3.39743318997752   -1.43768910902845   -2.50205892005395
C         2.96499765139068   -0.07737744919762   -3.02935023576329
N         4.14875121061356    0.83044102432753   -3.00755274807704
C         3.84940964755977    1.71076793625877   -2.09637352044583
C         4.53378761902630    3.04029159494357   -2.13026420794209
C         3.79614342974090    3.78749879854299   -3.24779927438362
N         4.45770630936445    4.34951421381168   -4.21014954379955
N         2.42172114508484    3.85769318778949   -3.40286686522924
C         1.33499389944839    3.22436119187261   -2.63097215858058
C         0.10305878277593    4.02806512925468   -3.12191787037510
O        -1.00648760536824    3.34739225644608   -2.53537100999832
C         1.06651006648619    1.72723897172926   -2.90081101394272
C         1.90450010420205    0.66393372251725   -2.13458239031651
C         1.03127883284427   -0.24764449974744   -1.21762748312543
N         0.12420673209502    0.37424322506162   -0.24039781755626
N         2.82744594705571    1.37387266645349   -1.22699513978921
H         3.95772694512899   -1.39431090713645   -1.56053519871953
H         3.97057220024351   -1.91087702676980   -3.30626470895649
H         2.52247863695225   -2.07069124902558   -2.34047152411382
H         2.59931210832012   -0.28830037907784   -4.04350013338332
H         5.60788237482886    2.97623039171882   -2.32231563101066
H         4.32423007005420    3.48250247469690   -1.15429844287172
H         5.46811409147459    4.38230266831354   -4.02522091457807
H         2.24350406214726    4.54025825713111   -4.14330537576843
H         1.48112557654033    3.39206631724725   -1.55529544004896
H         0.00190797380032    3.97356250397197   -4.21069037852708
H         0.24744941703814    5.08156313233851   -2.85133953767172
H        -1.87561935637538    3.75565491951524   -2.71086704542488
H         1.04907705714607    1.56115436133940   -3.98625202467246
H         0.01710556555405    1.63335800709738   -2.59038963877270
H         1.79512128692723   -0.79089198624781   -0.66186652843596
H         0.61834333292540   -0.94251197314839   -1.95946585954010
H        -0.80600722358601    0.58219105440637   -0.59516003375561
H         0.04644186987861   -0.28484369377612    0.53584450510264
H         2.41953632390684    2.08094762108152   -0.61879432295459
