35
 energy: -49.725384894945 gnorm: 0.107076130612 xtb: 6.4.1 (79825abcba525fcdf90b791dcacef51065a7a4e7)
C         3.64732475751463   -1.43984478168613   -2.74219818016656
C         2.91523356199046   -0.22637286332947   -3.29628560160988
N         3.97535849846358    0.82338770144095   -3.30074770210914
C         3.79524238562198    1.53325826689583   -2.22442507021341
C         4.47811503811693    2.83720367410557   -1.95878193995098
C         3.57605649046067    3.95034049238241   -2.50516916533666
N         4.03089796881735    5.14890343780032   -2.69546083669600
N         2.23244359289343    3.80318835767484   -2.80693145373331
C         1.06440331479093    2.93199674339953   -2.57323492058948
C        -0.10637011586588    3.67061211592430   -3.27206878553749
O        -0.04603748261159    5.09701703420358   -3.25884197361917
C         1.17013564272184    1.52139478849053   -3.19395577699039
C         1.83691091267896    0.40477530039246   -2.34041994721990
C         0.86374932130535   -0.56224736530832   -1.59737197131133
N         0.35244924915982    0.11905050861541   -0.39782729199029
N         2.77298800163969    1.07234200991623   -1.41431446498668
H         3.85608379364005   -1.34331405364698   -1.67010715149568
H         4.64138599988925   -1.44154654466715   -3.20152534185884
H         3.10452643923362   -2.35573443081289   -2.98481683600284
H         2.66296982836805   -0.35991986164019   -4.35706015345859
H         5.47394700650380    2.83368878985330   -2.40930772176859
H         4.62768265970223    3.00862157623297   -0.89097135788408
H         5.02983060831682    5.32302090147507   -2.52808623878827
H         1.94541691948560    4.73391462894951   -3.11881269511563
H         0.70098803801124    2.95234233720997   -1.53685888325015
H        -1.07350049098305    3.31453374980202   -2.90261698049025
H         0.00233813629120    3.41462855107760   -4.33347081665270
H        -0.07990895352575    5.33414743072472   -2.31253908296726
H         1.65065973285541    1.67509969235133   -4.16942573078780
H         0.10325007161590    1.27568760130601   -3.28231897990184
H         1.37278000509114   -1.48751918946363   -1.32866546269640
H         0.13489803521741   -0.90755840416255   -2.34115743216586
H         0.20687556750184   -0.65588904408352    0.24456942022251
H        -0.51656512468691    0.63581202491143   -0.54193364594258
H         2.38487273844934    1.57674589533266   -0.61983554131825
