35
 energy: -49.714835620146 gnorm: 0.114284431553 xtb: 6.4.1 (79825abcba525fcdf90b791dcacef51065a7a4e7)
C         3.66527199319430   -1.46200139577982   -2.82188043138629
C         2.98998254119930   -0.13437869922268   -3.13314649746615
N         4.02788060995656    0.92534903961139   -2.97306301053871
C         3.67552392287144    1.70278869456922   -1.99007737003737
C         4.33739534816812    3.02023071924164   -1.73822886428927
C         3.73354544509080    3.98941270748349   -2.76164167248952
N         4.43758594513072    4.92093532552068   -3.32399156392357
N         2.48505005720365    3.66690150890488   -3.26686998443257
C         1.31956051596023    3.03723760466175   -2.61643591287254
C         0.02186668354621    3.75159976281143   -3.07503079429483
O        -0.10329744512175    5.01263535011689   -2.41733090267180
C         1.20528037373452    1.56964660310214   -3.08482491556894
C         1.84616360845296    0.44519755674916   -2.22178683972638
C         0.90029883851257   -0.61647322062152   -1.57953180130640
N        -0.38994035154688   -0.05962938429756   -1.14397498877980
N         2.62371322004534    1.21837330069515   -1.23326632142451
H         4.26838202668797   -1.38324649653623   -1.90955722486519
H         4.36970628314410   -1.69500786094806   -3.62725139969080
H         2.93728824992574   -2.25805154061991   -2.65249478052017
H         2.64661975509955   -0.05967431863303   -4.17393258246448
H         5.40832894756747    2.84912120329996   -1.87420643799489
H         4.00081114778014    3.42109972955502   -0.78011137483435
H         5.42606511794504    4.89442527919351   -3.04398494087038
H         2.33965979555031    4.31383953406003   -4.04548315266323
H         1.42808088902981    3.00696902508471   -1.52379368835946
H        -0.76599541879671    3.04305805635717   -2.79958650662233
H         0.00476459501637    3.84456322346494   -4.16818432634316
H        -1.02689003548887    5.28496065678124   -2.25707200419833
H         1.60656744781326    1.46416156732789   -4.10163945526528
H         0.15360165935699    1.25320509306184   -3.06865288226526
H         1.41598037746808   -1.00579694100084   -0.70206787211541
H         0.77748185515486   -1.45346912574231   -2.27812649401728
H        -0.41158824088820    0.21787890822983   -0.16575361712787
H        -1.09332517225382   -0.78196828095798   -1.30667531664881
H         2.23830921251060    1.89273743159611   -0.57527677029124
