35
 energy: -49.717174558366 gnorm: 0.115748076103 xtb: 6.4.1 (79825abcba525fcdf90b791dcacef51065a7a4e7)
C         3.62496259394573   -1.35466895779685   -2.79821515317952
C         2.89353311905717   -0.08224493827319   -3.20000173167397
N         3.89071527911525    1.02673809982433   -3.15918078375864
C         3.73339238850168    1.55701185708084   -1.98067000076922
C         4.30818669922025    2.90701977625927   -1.69042001391723
C         3.58725215387334    3.81558103073986   -2.69346140388186
N         3.94017831759778    5.04113888150598   -2.92388687136890
N         2.50147670797039    3.36766980453564   -3.42727137906586
C         1.24998530856804    2.96795206837858   -2.75503481228543
C         0.11024522277638    3.86908081008088   -3.29687551819670
O         0.28181780386422    5.24480519387298   -2.95571394593886
C         0.88754192397304    1.48569927252178   -2.99551968745251
C         1.77703202884857    0.46138835260189   -2.23424041062439
C         0.96564370242511   -0.65304300560865   -1.50349542232442
N        -0.17514591216144   -0.12766367370780   -0.73728555172377
N         2.64182423145431    1.13316364792155   -1.24408420639588
H         4.66623914264104   -1.32127220757617   -3.14012958749098
H         3.02679415280880   -2.23372515588923   -3.06012503968015
H         3.80897941376235   -1.39751105894304   -1.72273850301403
H         2.54315430931112   -0.25992351503675   -4.22585718569007
H         5.36444134019909    2.93487703133167   -1.97009348349415
H         4.26114795048455    3.19900473101200   -0.63946514720682
H         4.70292672062966    5.37361355054506   -2.32066797719014
H         2.29722612946387    4.02163676359804   -4.18655691755003
H         1.26885132813330    3.06316702937173   -1.66089676325626
H        -0.91000468433390    3.49223498168923   -3.17155619681196
H         0.09263442183164    3.70132528792588   -4.38106520373621
H         1.20799107798343    5.43127605196054   -3.20127238358771
H         1.15115629300946    1.15910178424702   -4.01036536918956
H        -0.17447584677690    1.39264355462303   -2.73116435114235
H         1.66202089039537   -1.10039115365804   -0.79470645825338
H         0.56418192468814   -1.43061169297140   -2.16523257721788
H         0.15540890428763    0.28308306189800    0.13243691360212
H        -0.79807058890755   -0.91837047044809   -0.56482485380248
H         2.21331424559251    1.71626037211324   -0.52810175540385
