35
 energy: -49.716189908390 gnorm: 0.119625287065 xtb: 6.4.1 (79825abcba525fcdf90b791dcacef51065a7a4e7)
C         3.54145196427848   -1.49441866838992   -2.33759943405703
C         2.99445595551114   -0.27185809062890   -3.05983586955634
N         3.97482203411724    0.84313867022943   -3.20662346454886
C         3.75760480135338    1.56072379421040   -2.14233182508834
C         4.41851889241514    2.88794926001732   -1.94530373653819
C         3.66543587256348    3.94079738699663   -2.76731283823952
N         4.05830340283666    5.15864428737608   -2.97261465493297
N         2.41517074778397    3.65972990964415   -3.29252519992502
C         1.17342904176247    2.97217950733521   -2.88847204658531
C        -0.05266362446403    3.70630242002745   -3.49046221054195
O        -0.19050634163832    4.92146673806785   -2.75369831969526
C         1.18223840989965    1.47877392830345   -3.28335649554695
C         1.80389706313753    0.43436723359751   -2.31242555151269
C         0.88213329433176   -0.57513983795402   -1.56039921104352
N         0.34519817313045    0.26346271525452   -0.47737177464233
N         2.69032196193995    1.14260404856206   -1.36785766766491
H         4.35992601763679   -1.94388040841523   -2.91237074135732
H         2.95442621305673   -2.39036707265829   -2.10996089157464
H         3.97627299071644   -1.12449393113022   -1.40677504820384
H         2.68700829836117   -0.52596083798442   -4.08337002541263
H         5.44814387221323    2.92182788764387   -2.31053213162602
H         4.40326998493910    3.13164642360687   -0.88118289551349
H         5.00762099646494    5.43068182467039   -2.68802856101602
H         2.07914343974575    4.51495883616759   -3.74149596037233
H         1.03217067263379    2.99618054858190   -1.79942204158320
H        -0.98082924997868    3.13748000573677   -3.37394085949059
H         0.14279712169970    4.03371802774242   -4.51930303741841
H        -0.83068418638747    4.76898164781945   -2.03273515402938
H         1.82269889523556    1.44113843436710   -4.17468368837688
H         0.17555126106655    1.13030147359362   -3.55088745078099
H         1.39787944633290   -1.48230334414244   -1.24654630618279
H         0.04428187359690   -0.84918028875004   -2.21353590765762
H         0.61216430258239   -0.08955215812939    0.43832802674210
H        -0.67545872639629    0.29412866689339   -0.49509694205780
H         2.25213226011471    1.81369864819851   -0.74026280211395
