35
 energy: -49.726541588194 gnorm: 0.102137529885 xtb: 6.4.1 (79825abcba525fcdf90b791dcacef51065a7a4e7)
C         3.45497587504553   -1.21085476497202   -1.92522018012390
C         2.78086834585961   -0.20298888913635   -2.84460578299846
N         3.77351124132257    0.82480653118867   -3.27376621910563
C         3.77805566275260    1.67906583896364   -2.29139723995199
C         4.43596683827109    3.00876323811926   -2.48169342829142
C         3.59610241147768    3.82732980469602   -3.46956926642967
N         4.08048731810358    4.32761766981150   -4.56260545000176
N         2.22800792370731    3.90174624362983   -3.26760522429013
C         1.27400128079978    3.15879582676328   -2.42155383744619
C        -0.06411494577617    3.94221270917057   -2.43985083981460
O         0.15344752800934    5.28552555162350   -2.00785184018245
C         1.00017162726680    1.69328867084964   -2.82600115368235
C         1.80323710391275    0.66919843154478   -1.97378244075399
C         0.87939808403630   -0.19021125084909   -1.05604988368864
N         0.19532366069968   -1.21744488237214   -1.85688396948394
N         2.87908605692013    1.40185388782707   -1.27713190109779
H         3.85139938228409   -0.77766245321102   -0.99922314410137
H         4.23912158818519   -1.78245289183705   -2.43269743871710
H         2.81053628333842   -2.03747013583613   -1.61903018469623
H         2.33590734581822   -0.63859022351995   -3.74957849924743
H         5.46244382297576    2.79590993150360   -2.79105664123261
H         4.55616363528495    3.55074442412206   -1.54159603336816
H         5.10728427448466    4.28626980944853   -4.57586926283540
H         1.75947549618962    4.32718416905425   -4.07096412621872
H         1.58438436345499    3.17882284856979   -1.36807334781180
H        -0.76257312514818    3.58191090011256   -1.67763933945209
H        -0.58618286236397    3.82904796391763   -3.39826523710744
H         0.70513151998761    5.70698096753779   -2.69406417374394
H         1.28882483747646    1.55534547908845   -3.87658252427504
H        -0.07814476628225    1.48449756393590   -2.81794513845829
H         0.12324349801903    0.47137182550221   -0.63417141164070
H         1.42618461385835   -0.61155987133849   -0.20330693255370
H         0.96338726742752   -1.80975679443041   -2.16289285312948
H        -0.50958931066406   -1.71460307435961   -1.31014223733515
H         2.78822277754040    2.16352940615550   -0.60791761815475
