35
 energy: -49.725332949829 gnorm: 0.101377911518 xtb: 6.4.1 (79825abcba525fcdf90b791dcacef51065a7a4e7)
C         3.27327175464122   -1.46236594581743   -2.73077822579342
C         2.83920205546731   -0.06136616657349   -3.13607760549384
N         4.00916970164108    0.86408171401783   -3.16065303496257
C         3.90957118493274    1.56424434908765   -2.06763845837073
C         4.59791819292162    2.88331901719577   -1.91474833903353
C         3.88341075072329    3.78833547457938   -2.92556312978205
N         4.45071198733213    4.78856077102873   -3.52336199853384
N         2.59352270300488    3.50779951499880   -3.34448824910877
C         1.32834075950391    3.14093355950390   -2.67918304955826
C         0.14004145758250    3.95261730397554   -3.25689068520896
O        -1.05026178641056    4.06672994502632   -2.47676092196877
C         1.01844099019398    1.65986703497634   -2.99011015017315
C         1.83765933624899    0.64106163320624   -2.14697991672449
C         0.96478033460589   -0.39839222120384   -1.37762009760423
N        -0.11024806772744    0.26160440067198   -0.62050690974674
N         2.81824022085053    1.29810657009771   -1.26023866342552
H         3.81359567722539   -1.29848743056416   -1.79084653662433
H         3.96325192539722   -1.85720083127906   -3.48388835351636
H         2.39777200879861   -2.11455271785728   -2.75314524096362
H         2.34816251022872   -0.06652836116362   -4.11871077938738
H         5.56498938493004    2.76672509062354   -2.41057726757272
H         4.63907459900344    3.39545485475275   -0.95142230863473
H         5.44781180589993    4.90116578152941   -3.30130427781444
H         2.43270442943841    3.95966360298431   -4.24773900839015
H         1.28851498546027    3.30660545105908   -1.59404406217118
H        -0.11942290488490    3.59865130074564   -4.25989313206275
H         0.54834815559151    4.96531457525474   -3.36482220666479
H        -0.82421234951641    4.28028078826379   -1.55146910335271
H         1.30812285210043    1.56848537497816   -4.04547929949315
H        -0.04878611653681    1.42583796713736   -2.87749762869282
H         1.67949372392968   -0.98331602418240   -0.79926701599468
H         0.52712998474828   -1.05735745612769   -2.13782251133406
H         0.27836687776454    0.82560883501728    0.13134012402790
H        -0.55686811995616   -0.46287780223292   -0.05601496568540
H         2.50916871547441    2.09388298800509   -0.70574051620882
