35
 energy: -49.725378250614 gnorm: 0.112231556735 xtb: 6.4.1 (79825abcba525fcdf90b791dcacef51065a7a4e7)
C         3.72539532926074   -1.37074801645924   -2.50245459443643
C         3.12957678512225   -0.12467231199578   -3.14103115697735
N         4.06264883312555    1.03664904568253   -3.05984461559805
C         3.76329601759939    1.60826626994643   -1.92915011458468
C         4.07298152442747    3.05008286201834   -1.67932071484843
C         3.59505692864908    3.80284064531842   -2.92682461153445
N         4.31879483116888    4.37381571266589   -3.83777780310777
N         2.22819358873402    3.90855608362106   -3.12308641505806
C         1.22540364255824    2.97919687862400   -2.56755895131505
C        -0.07318135547648    3.75762341991989   -2.90276179887158
O        -0.09758094824172    4.98076860631673   -2.16671392646858
C         1.22604708084675    1.56520504689493   -3.18957035517945
C         1.89007894720406    0.43577876890810   -2.35087517331605
C         0.89615386407151   -0.61335035826503   -1.76288069441702
N        -0.09679560607812    0.12423347268093   -0.96631092133626
N         2.65612547749888    1.09710667559083   -1.27599144229407
H         4.74904461782788   -1.53463646557574   -2.85961056562650
H         3.23912099280411   -2.31806113239403   -2.75794863054509
H         3.75705347542731   -1.23206988021763   -1.41981254875442
H         2.97271108466324   -0.16951016059448   -4.22735390977927
H         5.13599542721944    3.22738521785457   -1.49702303134418
H         3.57772941745659    3.44195361641376   -0.78873851463328
H         5.31735999397261    4.22475068795905   -3.64582781533878
H         2.01993772390262    4.29727979934132   -4.04581549765684
H         1.24644570082801    2.90199888914948   -1.47204191743179
H        -1.00520371581580    3.22081611559631   -2.69831174150707
H        -0.11635160694084    4.09848944860710   -3.94481074400003
H         0.78990778141946    5.35709148086200   -2.32037625317172
H         1.72379357904870    1.61192333115654   -4.16739243579924
H         0.24681980106957    1.13687195587093   -3.44269000298330
H         1.50004143970256   -1.21329069942743   -1.08256111016764
H         0.40331964604335   -1.34910435235056   -2.41053891601814
H        -0.75090082052064   -0.47770088946375   -0.47212681901824
H        -0.69485704784619    0.61216845894054   -1.63506875925745
H         2.27421249457003    1.62875099951644   -0.49640805680897
