35
 energy: -49.719290158384 gnorm: 0.116326273173 xtb: 6.4.1 (79825abcba525fcdf90b791dcacef51065a7a4e7)
C         3.69244144980892   -1.36783666375438   -2.77546147032095
C         3.07045947765621   -0.06400289488988   -3.25362500704986
N         4.12891812567715    0.96424088905683   -3.03393884729487
C         3.70829541852805    1.66184039281244   -2.01842917665721
C         4.25325297791653    3.01180160680834   -1.67523694075861
C         3.56138698980714    3.91998019531467   -2.69888496576653
N         4.12166613814779    4.98089047954013   -3.18898846691672
N         2.36166052983517    3.51417466138608   -3.25923138525091
C         1.12083630597351    2.95390009524838   -2.68970999372838
C        -0.05411547276203    3.87561582569674   -3.10751406201159
O         0.01788824203685    5.08263724420674   -2.34832981828333
C         0.93682735175521    1.47556752183065   -3.09829905436067
C         1.82961867784089    0.40493599410454   -2.40791984565638
C         0.90875953468977   -0.67110649331314   -1.75336079656038
N         0.05020888094968   -0.07480555459740   -0.71807439321629
N         2.59184420088112    1.14699309882337   -1.38423998721878
H         4.01901200450485   -1.38470028390091   -1.72887417373700
H         4.61649879296906   -1.45781339464100   -3.35611997323243
H         3.13411940102616   -2.27471523054613   -3.01669873300542
H         2.95447501903406   -0.13037304873213   -4.34397220714524
H         5.33466199871176    3.04700265448299   -1.83009994423728
H         4.15405633061804    3.19900080616381   -0.60421384553396
H         5.01146834218616    5.18618959511218   -2.71749946775383
H         2.20488079908164    3.83938832734772   -4.21608130952047
H         1.17962579196451    3.16951855750240   -1.61425085729159
H        -1.07568893754310    3.55305050645814   -2.88175566563003
H         0.01570572099678    4.17856225579290   -4.15978198605969
H         0.86747370311733    5.47525720931883   -2.62567683710803
H         1.00341631872746    1.19696025691576   -4.15849436662038
H        -0.11068291177398    1.36989255843922   -2.78528159848521
H         1.46500090404902   -1.46227973855609   -1.25128133276199
H         0.30905759974748   -1.01073233002576   -2.60699572528215
H         0.55654630769995   -0.06100382964229    0.16387144472520
H        -0.71108472387092   -0.75293300815018   -0.77782632722605
H         2.06860483939438    1.68826775885088   -0.69904235540919
