35
 energy: -49.724318306573 gnorm: 0.104941357231 xtb: 6.4.1 (79825abcba525fcdf90b791dcacef51065a7a4e7)
C         3.52100737824741   -1.37666644231670   -3.05993078462784
C         2.95437580780425    0.02631793172875   -3.22132453620583
N         4.04838721723998    1.02151848446291   -3.02486361644066
C         3.76916673639949    1.64841573500199   -1.91857966811279
C         4.24375260302708    3.02202292990749   -1.56484748542924
C         3.64310760799710    3.95362049494010   -2.62441048382727
N         4.31362284854895    4.95978284243436   -3.09098463393907
N         2.42394469899099    3.60910938931076   -3.18384208755879
C         1.16610087756295    3.07914198407009   -2.62270893305817
C        -0.06853143179014    3.71617324387048   -3.31155293019888
O         0.03608807960796    5.13952698284277   -3.35111107096575
C         1.00517482610449    1.56016313433874   -2.85309461682490
C         1.88791748972979    0.48357435721088   -2.15906749470757
C         1.04333327746793   -0.68026276628922   -1.55371041742677
N         0.05262762510769   -0.31685060198754   -0.52855878617503
N         2.79783953077071    1.04424606065589   -1.14061472684348
H         3.95186019541991   -1.49304753705252   -2.05838249798040
H         4.28238011184661   -1.53130019022657   -3.83164449063210
H         2.82925007968603   -2.21756638790397   -3.14182572456623
H         2.47874675481434    0.08480073597337   -4.20979364761173
H         5.32518552955680    3.15349581719034   -1.65364411886854
H         3.79288402018915    3.28664084826469   -0.60637532483587
H         5.32428930376600    5.04149562349536   -2.92343196988922
H         2.12778164230917    4.32152765497452   -3.85514921414619
H         1.21315067342446    3.30749977130050   -1.54930364388436
H        -0.94280354505431    3.34390978336102   -2.76777376568995
H        -0.09494443387859    3.44794097877168   -4.37516617427977
H         0.15796588679541    5.42669847493393   -2.42615399342812
H         1.22843828559559    1.36367470919168   -3.91026817876484
H        -0.03260739815539    1.23223216885435   -2.70512775666748
H         1.69517869024189   -1.40681078266202   -1.06928406426051
H         0.54079690538286   -1.12407454866866   -2.42213945965367
H        -0.60352743570101   -1.09238528338352   -0.47953806214173
H        -0.47010879125399    0.52198105624947   -0.78566415486831
H         2.36906284751189    1.52650300731327   -0.35332045585865
