35
 energy: -49.720611098184 gnorm: 0.114197927643 xtb: 6.4.1 (79825abcba525fcdf90b791dcacef51065a7a4e7)
C         3.44849676096744   -1.42392124475768   -2.49378531163474
C         2.96064954896854   -0.06068951297520   -2.96185448275857
N         4.03027158502160    0.97902911493122   -2.98970870888143
C         3.80904060309036    1.75063175872906   -1.96476255586789
C         4.27777454530680    3.17060183021442   -1.99835404297303
C         3.79131254710890    3.74075796582419   -3.33611294049198
N         4.44997837013090    4.43352407871182   -4.21125820373962
N         2.49577008798761    3.39630935462952   -3.68386962926682
C         1.33118506979108    3.20656055737254   -2.79750396876595
C         0.14853547797352    4.06792656479203   -3.31133307796342
O        -0.99633926559574    3.94586176211141   -2.46705353001353
C         0.94741627253245    1.71103967683353   -2.74840910663676
C         1.88260318609032    0.66559866148313   -2.07577982770307
C         0.86210831202935   -0.33083678091374   -1.44332179849580
N         0.29358986122842    0.32665103583063   -0.25630936469560
N         2.82859135863496    1.26869653589689   -1.11612560047517
H         3.48050334506996   -1.54443620450067   -1.40441421165737
H         4.46646383552072   -1.56283573478898   -2.87271521622679
H         2.79845164140758   -2.20135602627205   -2.90045982688773
H         2.65240999303549   -0.02921534289164   -4.01575777947456
H         5.36782527262322    3.12870853060143   -2.06692151385235
H         4.04344948961645    3.83295226228269   -1.16267608639681
H         5.44365616708456    4.56717642876598   -3.98556140982253
H         2.19373707860284    3.59143808181284   -4.64126527563107
H         1.57674801046890    3.42454912374174   -1.74929611822677
H        -0.01959697653763    3.65618531730482   -4.31174710110507
H         0.52383959700772    5.09859340631535   -3.33947566431886
H        -0.71118461638964    3.43385987375868   -1.68640754552195
H         0.79511619604154    1.34124565267791   -3.77121273651130
H        -0.08066495128426    1.70651124390200   -2.36181714834057
H         1.34204828443311   -1.27422903097369   -1.18426188653973
H         0.11651671293096   -0.44857519128555   -2.23950741939905
H        -0.55545079141700   -0.12723638102655    0.07158196087581
H         0.93026961584584    0.11432673485549    0.51346486717518
H         2.43945587243238    1.75911234411962   -0.31343053251829
