35
 energy: -49.725011703390 gnorm: 0.111717042397 xtb: 6.4.1 (79825abcba525fcdf90b791dcacef51065a7a4e7)
C         3.42029630092872   -1.42992300420610   -2.36440506619678
C         2.86647481691741   -0.23723861435621   -3.13008788257821
N         3.97024022665603    0.75869280580564   -3.25540566176062
C         3.87784859723318    1.54130201919125   -2.21915519112837
C         4.59159893707867    2.85438295714434   -2.15970900915871
C         3.84494028891214    3.78702922157164   -3.12095508353912
N         4.48754627670382    4.58342567640736   -3.91622551480733
N         2.50684297722272    4.12107440810239   -2.99478355383928
C         1.42263994982875    3.22668017683733   -2.54481719476109
C         0.05149438951592    3.88065187688519   -2.85612522863862
O        -0.98537728286833    3.51700603154725   -1.94447574210996
C         1.36925451175690    1.77839485549048   -3.07950508720004
C         1.87384213992979    0.58083121402578   -2.22441191190547
C         0.82797316520751   -0.20435689223293   -1.37356863210006
N        -0.28974297678952    0.72639205754028   -1.15239223539691
N         2.89606915110375    1.15235005320789   -1.32553755067595
H         3.77393838582881   -1.11802545265227   -1.37448846408775
H         4.28574938027823   -1.76870840586406   -2.94350566751522
H         2.69900793146822   -2.24972619848102   -2.36807680541961
H         2.47395322567519   -0.51623721988705   -4.11740799348605
H         5.61173640665675    2.72736995261029   -2.53099647774562
H         4.58028628107523    3.29827309036609   -1.16230859790951
H         5.50810292328933    4.46257257305056   -3.90872708483546
H         2.24353626149830    4.75338959494053   -3.75422590093916
H         1.52198428878374    3.17589204665390   -1.45206326305069
H        -0.30333258724180    3.70607635612788   -3.87703109702427
H         0.11358881741862    4.96935171050985   -2.73448525128920
H        -1.13217845378091    2.57396848265610   -2.14940709464977
H         1.87798491611430    1.71196926335054   -4.05051035258076
H         0.33498241944228    1.50797236427922   -3.33165144493301
H         1.28732168630727   -0.46898783985936   -0.42151151239851
H         0.50815335257351   -1.11675076763184   -1.89215653273663
H        -0.27222393956006    1.45843524452874   -0.44655769996185
H        -1.16803051526379    0.21910768995709   -1.27184371333614
H         2.59786302631072    1.73426243411696   -0.54534233589902
