35
 energy: -49.723040137427 gnorm: 0.101155985294 xtb: 6.4.1 (79825abcba525fcdf90b791dcacef51065a7a4e7)
C         3.52903766185406   -1.48911163056721   -2.42193995979774
C         3.00448378010425   -0.24384681809608   -3.12168507808191
N         4.01601093712692    0.85127114810970   -3.06327740101508
C         3.71808494895613    1.59869181535934   -2.03983670406842
C         4.39246766326080    2.92021107546665   -1.85023263158456
C         3.62406139074179    3.98575260936355   -2.64111519248963
N         4.11915606049158    5.12717231869934   -3.00400240972584
N         2.46982294843712    3.65918952331682   -3.33328570847594
C         1.29013657796155    2.92572083937472   -2.83501796775901
C        -0.04381613869644    3.62071552902500   -3.21209136543241
O        -0.22166162107043    4.92318775642225   -2.65497106337607
C         1.26022737440698    1.46288599110515   -3.33048865414345
C         1.82755234536549    0.42491399642240   -2.32018759533914
C         0.79071153603880   -0.52095613046364   -1.63858110835163
N        -0.08595392547003    0.28566045031358   -0.77525652297998
N         2.65053709414430    1.11325383447659   -1.30606663792517
H         4.51613644306068   -1.70472490498332   -2.84787962488293
H         2.90907828956116   -2.36498168296106   -2.64021526990485
H         3.62763163600820   -1.38874872547703   -1.33909454913658
H         2.72340570111035   -0.54064740757988   -4.14130213568344
H         5.40742492280876    2.84078087924230   -2.24800107709330
H         4.37650601995972    3.31072141646689   -0.83081078718862
H         4.98238176819632    5.40833256640225   -2.52235123233941
H         2.39042148438624    4.36497382469824   -4.06913183794834
H         1.46986650271368    2.92007510324986   -1.75140125992936
H        -0.95658620517760    3.07329951842898   -2.95554877187486
H        -0.16400384208132    3.75660960399775   -4.29422215148852
H         0.49991356413673    5.49156874447049   -2.98533384055451
H         1.86526355390608    1.35930451752426   -4.24113255763759
H         0.25531482203762    1.04898447413464   -3.48942630450484
H         1.39128335314182   -1.16273153954227   -0.99446839808615
H         0.15801920236101   -0.99741141618812   -2.39777244069906
H         0.32255672286727    0.44468068847367    0.14247336775714
H        -0.97102226609374   -0.22012392934241   -0.71335917881473
H         2.25051073422060    1.53480147062605   -0.47028558462512
