35
 energy: -49.726319820013 gnorm: 0.109999077612 xtb: 6.4.1 (79825abcba525fcdf90b791dcacef51065a7a4e7)
C         3.72752529874409   -1.41451477182215   -2.73622161737975
C         3.04971778514578   -0.08844327578918   -3.04862486806230
N         4.01468187328968    1.03955425185069   -2.89913274692612
C         3.63606464989224    1.71741546116490   -1.85415350475148
C         4.04570670210663    3.14007285755362   -1.64109415616943
C         3.66844912923728    3.78807226737449   -2.97866498051564
N         4.51895257399387    4.50006920344834   -3.64900002593041
N         2.32293078692364    3.81984439043327   -3.30513210175594
C         1.22522329195170    3.08674832931207   -2.64519620595994
C        -0.04676410028334    3.84403341940239   -3.10693119328672
O        -0.05799880644020    5.21582968419868   -2.71133702691679
C         1.00900192410620    1.58137031842475   -2.91604094552034
C         1.86223821247022    0.49641259993957   -2.19854094634681
C         0.97907156542088   -0.67240302476530   -1.66171391500233
N        -0.15287027076642   -0.31158867749546   -0.79394513722359
N         2.63765310312070    1.11846256888650   -1.10705456433302
H         4.69291264230134   -1.45678094607247   -3.25440934959739
H         3.09180257341799   -2.23020751815271   -3.09628277719921
H         3.91730381804886   -1.55670174178716   -1.67033483054669
H         2.81445662580404   -0.09968501421978   -4.12158350176292
H         5.11611838098499    3.33332268749735   -1.53366747322227
H         3.58021579469848    3.62408415538071   -0.78026590058498
H         5.50968801182698    4.32265912961842   -3.44123447608979
H         2.24708253643948    4.16146276020336   -4.26609491406237
H         1.36880310433168    3.19510029475431   -1.56158900074616
H        -0.98007175090190    3.34815726933075   -2.82114934745926
H        -0.08444056189423    3.83872524989865   -4.20350387238157
H         0.83370729778893    5.58380805991789   -2.86073381064111
H         1.17484589097219    1.42237497750238   -3.98995270557162
H        -0.03708657847717    1.28383539753321   -2.76242884682295
H         1.57094818079596   -1.41463479595125   -1.12672099166001
H         0.57670796991644   -1.11731743413751   -2.58031906233536
H         0.00262085341259   -0.72118530387937    0.12390542294668
H        -1.08004759316093   -0.48685622767531   -1.18460941727121
H         2.19318148263441    1.63776448638277   -0.35271778290818
