35
 energy: -49.722669376761 gnorm: 0.113912706583 xtb: 6.4.1 (79825abcba525fcdf90b791dcacef51065a7a4e7)
C         3.51229098994192   -1.43803560690601   -2.23110680531254
C         2.69915486205706   -0.28363716876786   -2.79825613339332
N         3.69838207500684    0.69986437638442   -3.30830684023781
C         3.78379121253104    1.61177375018231   -2.38312846537306
C         4.55722049620089    2.88937621515118   -2.46494573684472
C         3.66389192307834    3.87219044172992   -3.23134150159251
N         4.06401562416574    4.76277080654087   -4.08363984200383
N         2.28360246737079    3.78139744205881   -3.16375823481702
C         1.16090478402243    3.09819424010030   -2.49242354104451
C        -0.07509027290741    3.97753457439756   -2.81446179512124
O         0.01709455629790    5.32993716239420   -2.36618157416505
C         0.95458116289956    1.58645577025669   -2.73397874812641
C         1.84314650522555    0.65031063624998   -1.86562647830202
C         0.96023734108626   -0.12532291137864   -0.83939033296955
N         0.14651815026781   -1.12202034292974   -1.55280276885977
N         2.99232112439597    1.36509265002888   -1.27567617863807
H         4.19725079785208   -0.89539309691953   -1.56880260009546
H         4.12375074410738   -1.84553082291067   -3.04302226069029
H         2.95638771194836   -2.14086783733597   -1.60713078483066
H         2.00290759235605   -0.53705561391264   -3.60926370122079
H         5.40682598255680    2.71754570907687   -3.13076249474988
H         4.77026197450418    3.32742445834462   -1.48785767556726
H         5.08569559413145    4.79177902671578   -4.19099966198543
H         1.83547887603526    4.38461104931095   -3.85746148635332
H         1.28203327327617    3.25803545099655   -1.41245197902353
H        -1.02667649863085    3.65803156269630   -2.37739306590247
H        -0.16439144090151    3.96209251018224   -3.90794530126426
H         0.71990257246825    5.83418114197192   -2.81858201794767
H         1.21484905941669    1.46193348738321   -3.79361314347260
H        -0.11759665941100    1.35821675009482   -2.66493854449054
H         0.25295791025274    0.60241723106672   -0.44240989146941
H         1.63919497522341   -0.44531209217975   -0.03920024462982
H         0.57779990695615   -1.74875114278891   -2.22778505853504
H        -0.32260633581932   -1.73758671992644   -0.88647301518335
H         2.71233105872252    2.11457027793856   -0.64627777410533
