35
 energy: -49.722173071440 gnorm: 0.112392456384 xtb: 6.4.1 (79825abcba525fcdf90b791dcacef51065a7a4e7)
C         3.69234626698601   -1.31641650975343   -2.73436000568738
C         3.01967157317193   -0.04373213408136   -3.22758175823520
N         3.91978330143729    1.13963952049534   -3.10383838456428
C         3.69726425525942    1.67566882320258   -1.93851169401284
C         4.21961809001634    3.04681916205321   -1.64825633950034
C         3.66502025754329    3.84009054501990   -2.83756872986738
N         4.30283729536280    4.70718178324939   -3.55936303838507
N         2.31896839438400    3.68553658199300   -3.12439152823371
C         1.21877017606123    3.05455851698759   -2.36984692046086
C        -0.05918216072389    3.82530152320312   -2.79106527166548
O        -0.03983692970968    5.22145875491748   -2.49304394940056
C         0.98813873523960    1.60845367743203   -2.86164108624345
C         1.87514081775376    0.47105286996937   -2.27897614728266
C         0.93768538708061   -0.74137581577965   -1.98658840008186
N        -0.23940826816123   -0.22714247836210   -1.26929028194296
N         2.75801899477359    0.97138569729746   -1.20671211734073
H         3.80178990538946   -1.21206437103051   -1.64835337234413
H         4.72769527367244   -1.27329534150425   -3.08838696073291
H         3.30083210822084   -2.30856838145875   -2.96823816364636
H         2.72969374803662   -0.19561838777471   -4.27617980030857
H         5.28953763753481    2.86181789924854   -1.77361122143038
H         4.01774602978870    3.50176973831444   -0.67653537190268
H         5.30976482852543    4.84299165528423   -3.40492799387571
H         2.10958727986969    4.17610848843800   -3.99697639939291
H         1.45948504370017    3.12693693620868   -1.30055855371648
H        -0.90689277932614    3.36740018555435   -2.27112232054800
H        -0.23644616297118    3.71518500566594   -3.86827052609256
H         0.90951420930071    5.43456729228590   -2.57168508726694
H         1.27945831750467    1.58576006978925   -3.92026667187552
H        -0.05810545309676    1.41533248229082   -2.58869019549559
H         1.55084141196984   -1.43526202666051   -1.41212779426217
H         0.66793030662317   -1.10076451223581   -2.98746435740070
H         0.02259232052311    0.10144697174527   -0.34312549912362
H        -1.00863516435395   -0.89223295029589   -1.17474012188201
H         2.26057881371055    1.33454929896984   -0.39620674894892
