35
 energy: -49.723499803716 gnorm: 0.113116326172 xtb: 6.4.1 (79825abcba525fcdf90b791dcacef51065a7a4e7)
C         3.55653502220417   -1.42791894139780   -2.49448926806753
C         3.05049030591122   -0.13926235904435   -3.12596960544030
N         4.09180358068679    0.91856633022248   -2.97581257422010
C         3.69596109280351    1.67667821007831   -1.99428136476527
C         4.36925778170072    2.99718694438409   -1.79407355378183
C         3.63139682657247    3.94811852298275   -2.74413278058229
N         4.07523043801411    5.04857995759537   -3.26532484748944
N         2.42831800859966    3.54272565199043   -3.29754749115761
C         1.24067913049249    2.94837569882634   -2.65398783179043
C        -0.01314444692504    3.67644517570927   -3.20396340716143
O        -0.05218922981462    5.01951131238737   -2.72116445873583
C         1.09771560961380    1.47410925433659   -3.09258954364424
C         1.87525619716909    0.42588601111767   -2.24606111476136
C         0.91827387348385   -0.63147165565653   -1.61322925347808
N        -0.23937937353657    0.06403101068960   -1.02960524698553
N         2.65329976007605    1.17250570229656   -1.23771385573098
H         4.30236427543050   -1.95177117936766   -3.10407539054396
H         2.83328985196635   -2.24345503975652   -2.38980222356215
H         4.06796702224255   -1.26857876675290   -1.54296644316624
H         2.71114882524576   -0.39433778785552   -4.13913213285166
H         5.37922487603376    2.87701611124457   -2.19431421034594
H         4.47533785515046    3.36498334251172   -0.77160262081129
H         4.98805854790939    5.36459073180543   -2.91449782895532
H         2.09330923880206    4.21653765506661   -3.99011670945167
H         1.17155045288322    2.98800253477871   -1.55844648877708
H        -0.93209848101905    3.23025593781341   -2.81017888884108
H         0.00451244055352    3.66976967432046   -4.30103360036269
H         0.84862708294837    5.39266035156161   -2.76760826314462
H         1.46617701199540    1.52763784851694   -4.12575995852632
H         0.07340236225666    1.10542680214584   -3.23846791358693
H         1.54594297060316   -1.24387119524164   -0.96635857825693
H         0.52476817058084   -1.21937893405256   -2.45179887335277
H         0.02078742475150    0.70282481604627   -0.28217481597382
H        -1.00087776883584   -0.58994829680303   -0.84138637183519
H         2.27556511318375    1.48687500068408   -0.34623085221601
