35
 energy: -49.723485298745 gnorm: 0.114814516635 xtb: 6.4.1 (79825abcba525fcdf90b791dcacef51065a7a4e7)
C         3.59356587440354   -1.46029435319271   -2.58548480468757
C         2.98683884084475   -0.14772017861919   -3.05931578781982
N         4.02298825899861    0.92455282647892   -3.10938568955513
C         3.85074613385305    1.66147696512119   -2.05009164337236
C         4.38469351949970    3.05258335479756   -1.92017581947387
C         3.51653612124274    3.94858040114832   -2.81169934896668
N         3.88323681391467    5.14000217661729   -3.16622658068775
N         2.33640222252705    3.47775011068275   -3.36270991709168
C         1.15662345644558    2.78468542084949   -2.80981718949037
C         0.00484623630820    3.70937773641074   -3.28203027950543
O         0.14552640983199    4.97819766857077   -2.64269387780756
C         0.92810816691263    1.28741052148202   -3.11349496564572
C         1.87052573041953    0.49922979791366   -2.15925600080636
C         1.04916004909824   -0.57730361696265   -1.38418773719879
N         0.00728942508763    0.14931897017475   -0.64187566746901
N         2.77818046263575    1.25732014221588   -1.27550328556944
H         4.55104778119094   -1.75411810104085   -3.03177359626890
H         2.89664827720865   -2.25437641978675   -2.87337648486140
H         3.60495088359050   -1.35559402004496   -1.49862883737827
H         2.61356407809863   -0.28650367077386   -4.08309287414325
H         5.37233333978327    3.06248032318201   -2.38829629268979
H         4.41793082601664    3.46651017755685   -0.91045612733752
H         4.83554934044297    5.37850289594211   -2.86222687218951
H         2.05921217574438    3.96746520344151   -4.21667151082454
H         1.09657677239457    2.99997569558544   -1.73436175639447
H        -0.91329600188303    3.28800039639473   -2.86003079178995
H        -0.07435875977365    3.79490427968192   -4.37305324358563
H         1.06895381938125    5.24229997791675   -2.81704711582154
H         1.24695858867675    1.00744780890343   -4.12642413842902
H        -0.14439418219295    1.12823685983046   -2.93791782735271
H         1.61909820907838   -1.11250759544222   -0.62512873981920
H         0.76986386261815   -1.30617497711531   -2.15517470069789
H        -0.44462640351047   -0.46691434239361    0.02926152352391
H        -0.69735327643107    0.46176904881985   -1.31183738263226
H         2.35619515473989    1.78074329528251   -0.51116692138238
