35
 energy: -49.722622310775 gnorm: 0.107882435794 xtb: 6.4.1 (79825abcba525fcdf90b791dcacef51065a7a4e7)
C         3.62983759195070   -1.48714273508183   -2.55374459926887
C         2.99327175321277   -0.21371154113777   -3.09099812699331
N         3.95645204888753    0.92564799046953   -3.08594249610291
C         3.74234480450117    1.66677911955944   -2.03727138065400
C         4.22344612044598    3.08060798595143   -1.95490446462848
C         3.48916656285956    4.02425054431462   -2.91495363193668
N         3.80999622996344    5.24240007496164   -3.21962531348220
N         2.43614290628399    3.42105729388707   -3.58226835388476
C         1.33000656594868    2.90627375313880   -2.75198689202412
C         0.06075031778197    3.71790551254330   -3.11923925649328
O         0.16921839288073    5.11365480095335   -2.83894555973413
C         1.04286587481725    1.40226855032551   -2.95641319624675
C         1.92610458725527    0.42566632654021   -2.12810821340419
C         0.94370575397874   -0.64473876910840   -1.55940618990676
N        -0.10495932677304   -0.01665746508718   -0.74067706007236
N         2.82301929412528    1.10297633061431   -1.17084541349374
H         4.56122957103260   -1.73415399615826   -3.07697695069421
H         3.05460209966139   -2.36671126785362   -2.86132450868620
H         3.75660486196302   -1.47401394914957   -1.46926068733789
H         2.54512951473915   -0.32030372540994   -4.08825488860762
H         5.29816808690200    3.11039694802895   -2.15176083819161
H         4.08446974954676    3.54127045185199   -0.97487914026512
H         4.59400724138308    5.65126104202304   -2.69583432274354
H         2.08546078300299    3.98735491274047   -4.35830615010098
H         1.56303806309646    3.13698880405655   -1.70364211110171
H        -0.86522174876525    3.36601051147864   -2.65300623350316
H        -0.22862984853196    3.62539460470806   -4.17357325443961
H         1.10744973975057    5.38198410353778   -2.81468478561687
H         1.06233663244653    1.20300517201898   -4.03622114238560
H        -0.00151300121787    1.18592764936221   -2.69393606435883
H         1.32472828743176   -1.55836445969259   -1.10382605005980
H         0.50880834102124   -1.01320788788080   -2.49683643328381
H         0.27795403829275    0.51331226539318    0.03836464308310
H        -0.66228366914629   -0.71448251337765   -0.24527332327862
H         2.33031811756735    1.57572763537722   -0.41585851866124
