35
 energy: -49.718503793937 gnorm: 0.106287568482 xtb: 6.4.1 (79825abcba525fcdf90b791dcacef51065a7a4e7)
C         3.57891590328711   -1.61445820820326   -2.60193206975971
C         3.09096837999460   -0.29278559617652   -3.17688701285265
N         4.14573093023572    0.74615131951038   -2.99258274492715
C         3.75330986158547    1.55744127764166   -2.05309207420439
C         4.27992247978937    2.93975201876096   -1.83161729475060
C         3.61625779514294    3.99457575133184   -2.72504789657560
N         4.18831089274195    5.04759393678322   -3.21855852548825
N         2.29716321612327    3.76434789975964   -3.07859343459075
C         1.16306646591235    2.93090465139867   -2.63462959879484
C        -0.13677394328960    3.62757160943443   -3.11390186221065
O        -0.26983853016365    4.93961856803430   -2.56684377269502
C         1.27824067836538    1.52708897003631   -3.26890714216511
C         1.92830172966596    0.41895271460732   -2.39174900063737
C         0.89175136207050   -0.50559004610928   -1.68105876038389
N         0.09558241660021    0.38131333901920   -0.81849317485870
N         2.67264166971133    1.10526729452616   -1.31727827944328
H         4.47416362718252   -1.95591110627914   -3.13505411760390
H         2.73337478853375   -2.30920944809204   -2.64095801332746
H         4.01377434633992   -1.51237894942421   -1.60552571172589
H         2.72433129698990   -0.45237117905015   -4.20003124658367
H         5.35495893357714    2.98841875345148   -2.02291629041986
H         3.99410594216399    3.25599859289457   -0.82649490575181
H         5.20463399761593    5.07293046087440   -3.06808272475326
H         1.93844323856067    4.27924830799835   -3.88612247059038
H         1.17577785664065    2.84787185316052   -1.53941096133004
H        -1.06472517508493    3.07661544356848   -2.92956139086941
H        -0.09431422794030    3.61844578776826   -4.21027462105177
H         0.63899861219476    5.25292194472533   -2.39736426212119
H         1.85553678661802    1.68164408666419   -4.19027142664643
H         0.26449683970034    1.21810911935079   -3.55748948282366
H         1.37855715287655   -1.19866655020242   -0.99541420837358
H         0.29247686708079   -1.14157323893492   -2.34444113167746
H         0.05461180846612    0.32149038245937    0.19597178863270
H        -0.83243879686229    0.65725181461151   -1.14350036226527
H         2.18198011415376    1.68459479527993   -0.63913052894171
