35
 energy: -49.723185732009 gnorm: 0.103346149321 xtb: 6.4.1 (79825abcba525fcdf90b791dcacef51065a7a4e7)
C         3.68391240350439   -1.58371187752154   -2.78975946798169
C         3.10228784865503   -0.20475917146565   -3.06487174944937
N         4.17842113691796    0.81896397540707   -2.92412345344950
C         3.82985525508249    1.65216555834634   -1.98651725649826
C         4.33903694765588    3.03753255401529   -1.74434533470490
C         3.56301991269433    3.94772951039591   -2.70385628191644
N         4.12580492297111    4.84389876998666   -3.45205312163365
N         2.22407676765965    3.77848176575206   -3.01465575240944
C         1.09534641909036    2.93644306436725   -2.57324254308291
C        -0.19890348260563    3.65512246175154   -3.03481481299959
O        -0.15275173995630    5.00939687080440   -2.58508510776111
C         1.18937767499314    1.48482334806179   -3.09307895308716
C         1.97330580328660    0.47550603107781   -2.20612519111515
C         0.92471521904422   -0.53456606525080   -1.64531439862230
N        -0.16950064886504    0.23905422784064   -1.03810334137265
N         2.81788920682728    1.14046954434240   -1.19416700449507
H         3.98428714772590   -1.62366497651916   -1.73597749395678
H         4.55241018872206   -1.63962978540579   -3.45438482848179
H         2.97627392500884   -2.36584670444813   -3.07235558579812
H         2.83165718613347   -0.24628175397007   -4.12870884026005
H         5.41484914179204    3.15106719502711   -1.90056682208503
H         4.28638133537298    3.30360239514485   -0.68679711895391
H         5.14909211539362    4.93499320469630   -3.48002969999801
H         1.93209985301513    4.37786878212601   -3.79014933377435
H         1.18628588330766    2.90577222644414   -1.47900800939628
H        -1.17420994912513    3.30331616660617   -2.68319396627781
H        -0.29965937611671    3.67250192100665   -4.12727329585214
H         0.61729820249477    5.40502448908745   -3.03604978035326
H         1.59481376002595    1.47834255954160   -4.11369141720449
H         0.14416360533015    1.18202832322758   -3.24230230997102
H         1.31341204470635   -1.23942324792463   -0.91078427972256
H         0.60315266455885   -1.03603017198151   -2.56662433361868
H         0.12555591160185    0.62458687896932   -0.14440163390801
H        -1.01251510632700   -0.31836483558607   -0.89111456521001
H         2.30223948883479    1.78245918377426   -0.59566205943063
