35
 energy: -49.716559369970 gnorm: 0.097334559247 xtb: 6.4.1 (79825abcba525fcdf90b791dcacef51065a7a4e7)
C         3.57760727250739   -1.48934301321019   -2.46821217747391
C         3.01733064314147   -0.24230859158915   -3.13640356349992
N         4.05971002479752    0.82145774106198   -3.22431514510862
C         3.88000955686207    1.55700638770766   -2.16530410893447
C         4.41862156719642    2.91485156512679   -1.84388764351064
C         3.61852241112083    3.95919608863898   -2.63161099072626
N         4.14677775757524    5.10293150550155   -2.93568402149679
N         2.39109534551173    3.62557123391595   -3.17944957301431
C         1.14942876218072    2.91708227443563   -2.81309661872531
C        -0.04107124977825    3.63601087660353   -3.49901443148533
O        -0.37188125208271    4.93342765302961   -3.00331249052838
C         1.09377419266343    1.44537432626584   -3.27919733857280
C         1.85796829492651    0.46574799524468   -2.34309296738402
C         0.79874960528005   -0.35366198666795   -1.54251837855415
N         0.25320078259874    0.24413080332203   -0.31389221314694
N         2.76918522742211    1.18384250889463   -1.43008641442770
H         4.39407297901602   -1.95774461690256   -3.03058338643046
H         2.96990717601786   -2.35434086829126   -2.18251760478825
H         4.07987623740976   -1.15958030029972   -1.55643911597364
H         2.71107100652053   -0.43770635719161   -4.17309984981860
H         5.41112035854225    3.08647398349868   -2.26833911821014
H         4.46558291413782    3.12786900952595   -0.77412495486176
H         5.11111091044916    5.22092084255048   -2.60051592338832
H         2.09411935792062    4.39451706645919   -3.78478682202795
H         1.01912197485019    2.83849813642296   -1.72525261467310
H        -0.98148686437340    3.08019570310791   -3.42610650881481
H         0.28486534414174    3.74704941850562   -4.54081821288530
H        -0.46882190369778    4.75021505284381   -2.04942417620982
H         1.49137479990713    1.40628294775006   -4.30216158810774
H         0.02949808100524    1.19370133580742   -3.38118733322786
H         1.25299659355756   -1.32905044001156   -1.37012227450643
H        -0.03792569122148   -0.50594926662773   -2.23567330944728
H         0.67134539560799   -0.10411509685149    0.54533791683580
H        -0.73816951972356    0.05010612529209   -0.16377747029559
H         2.38423589249192    1.91643649914549   -0.83731870327696
