35
 energy: -49.718857124893 gnorm: 0.110647780680 xtb: 6.4.1 (79825abcba525fcdf90b791dcacef51065a7a4e7)
C         3.59859076110100   -1.46797254627673   -2.99345321572671
C         3.10502276158527   -0.05193492789247   -3.25174088384968
N         4.09764734923091    1.01408626081460   -2.92897589827636
C         3.58420615389834    1.67013225477995   -1.92857088190644
C         4.05845818010208    3.05602626742402   -1.62601888726332
C         3.57615340122873    4.00253760314504   -2.73183106039547
N         4.14706878741586    5.09534249644171   -3.13117786793665
N         2.39305952597260    3.58894124768033   -3.32109905279564
C         1.25278047143637    2.91922348470211   -2.66600457605219
C         0.10238500896108    3.85869808769280   -3.11166094747456
O         0.14204670932031    4.99658663024445   -2.25021879558752
C         1.04567414297792    1.47933683244584   -3.18572079008426
C         1.84326874886554    0.38505988290169   -2.41998422405630
C         0.91688905690262   -0.69389214313238   -1.77812775146409
N         0.16983169406928   -0.04741249052069   -0.68795743012278
N         2.49562182350578    1.09228235932604   -1.30023926278353
H         3.94507180357294   -1.56660412610557   -1.95783727556052
H         4.36226249974176   -1.79831255655101   -3.70536825787155
H         2.74114394250861   -2.14180234735757   -3.04900513845334
H         2.81060154749367   -0.02060703545476   -4.30959206687900
H         5.14177342896076    3.10102014066033   -1.76411580560902
H         3.60517322238027    3.36052420691173   -0.68061540340522
H         5.04598779799167    5.34288758867050   -2.69890064770736
H         2.35714774760266    3.74334154936302   -4.33143388636565
H         1.18519756582738    2.85585007342875   -1.57148356684394
H        -0.89073890885456    3.44569912722953   -2.90729768924203
H         0.03488686623992    4.13531090139913   -4.17130649225444
H         0.96608681101255    5.49628877838527   -2.40553439575320
H         1.26601716383435    1.55218222917543   -4.25913250422526
H        -0.00271896420523    1.19413234715572   -3.02461470268585
H         1.47721474669703   -1.56065126840028   -1.42854644344849
H         0.15052644441526   -0.96170578500140   -2.51612836379906
H         0.69627622910037   -0.06802783995679    0.18200101526019
H        -0.65938306736446   -0.60888041972455   -0.48757846446562
H         1.92951612631974    1.60117587266162   -0.62436560154854
