35
 energy: -49.718078344524 gnorm: 0.122832548078 xtb: 6.4.1 (79825abcba525fcdf90b791dcacef51065a7a4e7)
C         3.60934130984462   -1.25435666530421   -2.82740798975718
C         2.98643884879566    0.08022259771893   -3.20999803422804
N         4.05125154425799    1.03433434085373   -2.78370389821049
C         3.58947903447458    1.65763309411069   -1.73819291204241
C         3.93160779498620    3.07552912349314   -1.40702272835261
C         3.61087009868656    3.75100404761794   -2.74574716528722
N         4.39141440242318    4.61355165971271   -3.31706756113510
N         2.40940785311353    3.54613102857642   -3.40341374959449
C         1.21315897245300    2.98198160103575   -2.74871458686500
C         0.08647143839297    3.88667130948801   -3.31151433916855
O         0.22322433274912    5.23846403163830   -2.87287891205415
C         0.85904137004681    1.51502074674817   -3.07871168610025
C         1.74235365601426    0.47492379317638   -2.33177837486146
C         0.85257833217252   -0.70611021135382   -1.83402837407181
N         0.33493131159749   -0.35296902358435   -0.50292551562912
N         2.45487903028988    1.08505894619427   -1.19177855365695
H         4.52418340222735   -1.45327713271733   -3.39817262618703
H         2.91433765585790   -2.08047556975892   -3.01081886871454
H         3.89767655998257   -1.15593801424730   -1.77882598601923
H         2.73278877876777    0.16749755190840   -4.27524876780380
H         5.00915789483614    3.03725685207467   -1.22789108010064
H         3.32526044677528    3.54747669366452   -0.63140531642719
H         5.29909917181676    4.86087433536469   -2.90337998912119
H         2.35081049168808    3.70677366153660   -4.41171225007711
H         1.29620449789901    3.27311417059324   -1.69282390211140
H        -0.86502308522474    3.54078364589981   -2.89480402245533
H         0.00884695100685    3.81262124851935   -4.40348977520380
H         1.17668882025313    5.40498227155026   -2.99954543677817
H         0.91922509176796    1.54689466508733   -4.17481029596930
H        -0.16103259986472    1.30151961672754   -2.73188143272744
H         1.43843795442616   -1.62488289443739   -1.82574560195368
H         0.11713052794936   -0.89951568598520   -2.62484538365665
H         0.95779384481772   -0.34968270795899    0.30108194392497
H        -0.54346135714522   -0.81317311599497   -0.25872561357490
H         1.95988521621393    1.64454403940164   -0.50025051856449
