35
 energy: -49.721700083856 gnorm: 0.109176356823 xtb: 6.4.1 (79825abcba525fcdf90b791dcacef51065a7a4e7)
C         3.30312803935755   -1.59005136870948   -2.42350440164521
C         2.93953937830702   -0.24398220112052   -3.03291851248988
N         4.09615353880684    0.69469292344579   -3.11667245457572
C         3.88114597036679    1.55701371463466   -2.16535598163250
C         4.57141511339993    2.88368252818122   -2.19052153386723
C         3.86711879225045    3.93936682998593   -3.05123027258142
N         4.45503564110138    4.96437578131946   -3.58354149147547
N         2.52623100145861    3.74646539454335   -3.33901284727117
C         1.34568068049473    3.11805955690623   -2.71506250524676
C         0.08438069175329    3.99867317635446   -2.91069950315754
O        -1.05207714474021    3.39644155130254   -2.29083934109598
C         1.19978351116562    1.65413219614994   -3.18612755140120
C         1.89517336397548    0.62940072959945   -2.24468709522300
C         0.81667467699472   -0.16271578253944   -1.44238501139146
N        -0.10735495681918    0.84009528043160   -0.89007965490517
N         2.84798788949443    1.24509236535836   -1.29989861302220
H         3.69087637792688   -1.44420311705060   -1.40829151632673
H         4.01216781951471   -2.08857339996113   -3.09274312068436
H         2.36333466890782   -2.14587332283891   -2.40943128808666
H         2.64711034132316   -0.38199625959391   -4.08275269923678
H         5.52124581055441    2.80167830227972   -2.72509061836048
H         4.84862451700156    3.23744765852313   -1.19554456154621
H         5.47407861448026    5.03547604677025   -3.47087502825479
H         2.23799755961555    4.21418267332549   -4.20160639869533
H         1.40314451094831    3.19398855248039   -1.62076245643856
H        -0.33412734164578    4.05319553450600   -3.92090044024434
H         0.34844237654898    4.97296381465530   -2.48064309503086
H        -0.66728127962436    2.84098086979110   -1.58638009029501
H         1.69852622104011    1.64413260069512   -4.16450679683756
H         0.15445510328687    1.31835206399978   -3.15506123254446
H         1.21057633831899   -0.73803279029534   -0.60495131471321
H         0.19310293535631   -0.78252000032193   -2.09864847702988
H         0.32444435483186    0.99696829528781    0.01729940347486
H        -1.01239274044697    0.38487284439168   -0.76095090481495
H         2.55725097621625    1.89090925245237   -0.56870364011254
