35
 energy: -49.720594706691 gnorm: 0.120871843191 xtb: 6.4.1 (79825abcba525fcdf90b791dcacef51065a7a4e7)
C         3.67232097622537   -1.42608376642685   -2.53650513595184
C         3.06605568725664   -0.16461727699618   -3.13368946650573
N         4.07967629235362    0.92480970380649   -3.02596707882881
C         3.69001954319437    1.63725847573041   -2.00841473900435
C         4.18633760572359    2.98491502750993   -1.59050910013335
C         3.58698765109520    3.93583205655462   -2.63351369979872
N         4.20482630720640    4.92813538972223   -3.19320493695831
N         2.44038525265138    3.52984183382657   -3.29569546402616
C         1.19352106104904    2.91483258880990   -2.80072046776137
C        -0.03506040334397    3.73322167975102   -3.27554535899373
O        -0.01038084110484    5.01304739719822   -2.64318232881415
C         1.06509177349817    1.41848423867115   -3.16227133691222
C         1.86777437678694    0.40971082708993   -2.29162301659015
C         0.89643953607220   -0.66089680917286   -1.70459283595536
N        -0.15564288357635    0.00891503231465   -0.92422328178189
N         2.55155147721327    1.27560401835716   -1.31068735895305
H         4.65033108273025   -1.51185030509943   -3.02478580702707
H         3.13634317619441   -2.33773080637150   -2.82070497392436
H         3.74935603478630   -1.38689405841606   -1.44798438382946
H         2.82715915261007   -0.35588108507346   -4.18870652919610
H         5.26987869431345    3.06137266015558   -1.71200015084100
H         3.90441313628267    3.16046103882445   -0.55047247831427
H         5.17037059155803    4.95676200277384   -2.84234553815429
H         2.34109317936262    3.98799527585308   -4.20461905227252
H         1.27578578007082    3.06122247343702   -1.71519644754423
H        -0.96590108725970    3.30820329539144   -2.88628634523513
H         0.06805434457051    3.83639425049059   -4.36303884908141
H         0.72753944867282    5.60745702189491   -2.87774170714803
H         1.28593543209332    1.26650303293181   -4.22725959452718
H        -0.00508301014828    1.24422327568683   -2.98681789170509
H         1.49935951709052   -1.25671081767677   -1.01980343984551
H         0.37436257590837   -1.22009199606167   -2.49098782833977
H         0.13936881745025    0.93655711310386   -0.62952886179334
H        -0.64618752076039   -0.43466951231150   -0.14602421445913
H         2.18855553219569    1.89167699838346   -0.58615890133885
