35
 energy: -49.720609775625 gnorm: 0.107041314431 xtb: 6.4.1 (79825abcba525fcdf90b791dcacef51065a7a4e7)
C         3.44266027699123   -1.72834758191824   -2.59129450841061
C         3.12044676911687   -0.36189952860082   -3.17822091304843
N         4.22152549230457    0.64347258285898   -3.23051389894985
C         3.92792576578680    1.51554167882469   -2.30957791371328
C         4.56357848620785    2.86568429624577   -2.20850653895958
C         3.55829796456576    3.96231632883424   -2.58016688315518
N         3.87511498394744    5.21448921983623   -2.47370168575422
N         2.23594016156158    3.87733393484382   -2.98285493010458
C         1.19851141891250    2.89626073803768   -2.60983485642431
C        -0.15323142569746    3.52879395105571   -3.03093445795443
O        -0.23885957362962    4.83276636279688   -2.45580861327183
C         1.34464451503249    1.53964290498008   -3.33406184922954
C         1.98052552801777    0.43460462948892   -2.44271598338301
C         0.78908020903112   -0.34059323642300   -1.79942532358646
N         0.08146983164123    0.54482992650722   -0.86144059496081
N         2.86529237971616    1.15064920999021   -1.50249009804132
H         3.50621254565859   -1.67777957284904   -1.49782221177709
H         4.37770211601281   -2.17935957544254   -2.93975830085250
H         2.55483282826116   -2.34658538223588   -2.73925433433534
H         2.88617375728752   -0.49915909039107   -4.24264112443786
H         5.41746785032031    3.04338922006714   -2.86726373102660
H         4.75732077343825    3.09810543198277   -1.15949827457736
H         4.83358160154446    5.46007355951433   -2.19580308076145
H         1.86595163663409    4.82938063398367   -3.03405236653389
H         1.20625358839542    2.83922605511013   -1.51290869829275
H        -0.92660055274014    2.82186908209905   -2.71346788481084
H        -0.19772806480485    3.69026002969582   -4.11530897350244
H         0.31843006256932    4.85214170598536   -1.65460943741439
H         1.99220227736577    1.74351810345878   -4.19729650209642
H         0.36718546832981    1.30929244281179   -3.77896335331622
H         1.04428377073842   -1.21275859649302   -1.19805848102361
H         0.17342857532574   -0.77369128026913   -2.59759814589394
H        -0.46209094155643   -0.02270456090142   -0.21580692922765
H        -0.59407641051291    1.10249082059436   -1.38646124932518
H         2.57984102219888    1.80974480406979   -0.78112750414616
