35
 energy: -49.724468121311 gnorm: 0.108830434417 xtb: 6.4.1 (79825abcba525fcdf90b791dcacef51065a7a4e7)
C         3.46453634442202   -1.52730667075569   -2.39348124649130
C         2.92459328541504   -0.25925451301125   -3.03845383991876
N         3.97844583934957    0.77203922052905   -3.26585222006062
C         3.84731886252663    1.60560490778584   -2.27448832689887
C         4.57741946627138    2.90741777371486   -2.17757965926964
C         3.76712227140205    3.87880232491101   -3.04427030757220
N         4.33666412377414    4.96398399791746   -3.46575294297628
N         2.53160177483636    3.49373538528263   -3.53744612219828
C         1.31312620693378    3.10244996342923   -2.80251757124646
C         0.04734826101442    3.92663314328086   -3.15345928059519
O        -0.92062379753934    3.82454619239824   -2.10892383449418
C         1.11452797370846    1.59662411383745   -3.08415346949702
C         1.89735864889419    0.58553012610706   -2.19825462931758
C         0.89398328244805   -0.20974030578385   -1.30658240756082
N        -0.09364340576891    0.67701468428652   -0.67194780469333
N         2.87556758716913    1.28645526778653   -1.34305397633689
H         4.06780432176412   -1.22010077370650   -1.53094431195373
H         4.17284961535722   -2.08217062168286   -3.01762897019726
H         2.74715816882969   -2.30391520014046   -2.12035965504852
H         2.48627086580435   -0.60782153754077   -3.98348764713798
H         5.52964091782917    2.79178325250253   -2.70157403519807
H         4.75732911940423    3.30124128802214   -1.17532742701113
H         5.29077463776027    5.21647538899213   -3.17918919630685
H         2.43889692381326    4.23293595871618   -4.23808435094922
H         1.51038372972176    3.33789197690336   -1.74790085976634
H        -0.41592994661671    3.61253518679415   -4.09438614236536
H         0.36570709397488    4.96338655832099   -3.31992048384077
H        -1.20824290576302    2.89526996492718   -2.02775610266035
H         1.52372984761629    1.43733520843920   -4.09075720747529
H         0.07066125857979    1.27237174319114   -2.97632236470240
H         1.43276220199062   -0.85592762962364   -0.61404896606818
H         0.19375907276228   -0.78651777299193   -1.92358687513744
H         0.25876795668454    1.50539246242082   -0.19866879341605
H        -0.66840656868205    0.14876265654821   -0.01347063311157
H         2.42541366957128    2.00532146037350   -0.78016292923925
