35
 energy: -49.721329899235 gnorm: 0.098451137409 xtb: 6.4.1 (79825abcba525fcdf90b791dcacef51065a7a4e7)
C         3.41956437438957   -1.51658416273631   -2.28765001259416
C         2.84751619854238   -0.33091698093707   -3.05082672630981
N         3.89353949890820    0.67612824418618   -3.39372204010061
C         3.90921323149365    1.52816491381581   -2.40953898497297
C         4.67204317393074    2.81403017324170   -2.36716011944931
C         3.78850396775764    3.91703622477015   -2.96218810548001
N         4.22907075532892    4.91122374559847   -3.66726745713090
N         2.41787564231466    3.79643254703903   -3.11980340116856
C         1.24518142630771    3.03621275481266   -2.64571362267050
C         0.04577504990942    3.83081902000858   -3.22420916065503
O        -1.20897357924468    3.37129401415388   -2.72132884429459
C         1.14876262601780    1.55432297315278   -3.07112831489555
C         1.91575786471000    0.56181823456540   -2.15101723511480
C         0.97307724216960   -0.10733126566788   -1.10321534457547
N         0.49273265301553    0.84601420846503   -0.09084017966835
N         2.94784866625445    1.33611566273768   -1.43351527606733
H         4.02824981466600   -1.08782218308643   -1.48270101431503
H         4.01209042370936   -2.18839096076181   -2.91751554944063
H         2.64640534686592   -2.21794753397603   -1.96724056550239
H         2.29463976597035   -0.75327293415581   -3.90091939025326
H         5.64777001494857    2.64642454403474   -2.83033678248734
H         4.93234501934807    3.12769546775426   -1.35432694566913
H         5.22978226381214    5.14002367535197   -3.61802692127101
H         2.10062428153408    4.49977767571300   -3.79104315782226
H         1.18630222371890    3.23542273599308   -1.56709945607767
H         0.16246000479174    3.78039079813768   -4.31162316584952
H         0.16740019702097    4.86686627953915   -2.88401401383633
H        -1.86879455971947    3.79396671818013   -3.30343821677442
H         1.47674798576713    1.49941754374243   -4.11778070351277
H         0.07103994193258    1.36526516828991   -2.97523329059585
H         1.67897133095931   -0.76840877069075   -0.60108643006627
H         0.13984653243811   -0.65914473880008   -1.55588431146648
H        -0.13359686170735    1.51523540615112   -0.53157918280961
H         0.03039046422418    0.36568980896074    0.68280267058044
H         2.74141334813452    2.16940075277916   -0.88645593697281
