35
 energy: -49.725551399615 gnorm: 0.110578759195 xtb: 6.4.1 (79825abcba525fcdf90b791dcacef51065a7a4e7)
C         3.75082583234129   -1.46524644663824   -2.71744569274128
C         3.11946823855745   -0.11584659643619   -3.02727154707629
N         4.09255709821319    1.01019881436736   -2.92238207554631
C         3.75911305792867    1.69798508316288   -1.86853505468590
C         4.09844048661878    3.13019427524609   -1.60247365945653
C         3.58183158340737    3.95357634892497   -2.78842449899295
N         4.33834083742788    4.66405957873304   -3.56466681901737
N         2.31536821830714    3.66476759205047   -3.26870556062483
C         1.18037602402069    2.95719632540148   -2.64497276267290
C        -0.03482645788527    3.77757069587478   -3.14984964160703
O         0.08947455456532    5.12897307540189   -2.70633320300192
C         1.05524888989840    1.46734072504385   -3.03348920048342
C         1.87057406918579    0.41356078927678   -2.23052944530127
C         1.00219774761331   -0.62846295071125   -1.45955237967724
N        -0.27904487161982   -0.02787412759071   -1.05679638370567
N         2.67674015726112    1.12899229032125   -1.22166327061145
H         4.59506730471190   -1.52148013862334   -3.41484929919728
H         2.98620476798506   -2.22405468274097   -2.91418605221215
H         4.15231309780605   -1.58816516905037   -1.70945431267839
H         2.84703007957881   -0.25007706749113   -4.08295807833081
H         5.18685255724215    3.20391938555096   -1.53471734789546
H         3.72238681874271    3.40659550207022   -0.61547822051896
H         5.30942757358647    4.79340900143992   -3.25409180277807
H         2.10111916282924    4.12717845923387   -4.15537298880462
H         1.21537619876066    3.14239025253585   -1.56282763387557
H        -0.95157417951509    3.51953111259884   -2.60983409836002
H        -0.24278594682848    3.69447362621802   -4.22398513404275
H         0.95610099154261    5.39260765862836   -3.07009505895674
H         1.32486017078816    1.34564586961572   -4.09111405133457
H        -0.01737047963842    1.25286020573929   -2.93393686055464
H         1.52577311468721   -0.73334920867626   -0.50965181984610
H         0.84922743425786   -1.56736125420973   -2.00613334956261
H        -0.74526822847720   -0.48458707729389   -0.27676715305174
H        -0.96826070951369   -0.20860097378251   -1.78844822867995
H         2.08192708008421    1.62910477385185   -0.56413882555537
