35
 energy: -49.723173370827 gnorm: 0.104141630822 xtb: 6.4.1 (79825abcba525fcdf90b791dcacef51065a7a4e7)
C         3.55309578344957   -1.40213555422766   -2.11867072513244
C         2.95800052082031   -0.28557310158701   -2.96403122645058
N         3.97277399768361    0.79063106349525   -3.15871404849180
C         3.83176878404834    1.63841779390540   -2.18085740884649
C         4.43487275002627    3.00708156318876   -2.19427439964631
C         3.75401766376436    3.90283489502927   -3.23609228384826
N         4.40484127830419    4.76402436142048   -3.95332735322991
N         2.42002289530375    3.80948729612435   -3.59630615688051
C         1.37352782272365    3.10180681111853   -2.83345402010627
C         0.06430444292532    3.90577928553396   -3.04367828984548
O        -0.86728761134364    3.50204777561319   -2.03989391284597
C         1.19737462305197    1.60074447126530   -3.15291206273126
C         1.85734443960080    0.55107904017899   -2.21344730671507
C         0.75744554003786   -0.29003086264874   -1.49438325711293
N         0.14410288282868    0.55301515711938   -0.45631477605921
N         2.77987663454214    1.30889420826737   -1.34499611766163
H         4.00579138089308   -0.91044804677730   -1.24942520369811
H         4.29780981331431   -1.87348016521657   -2.76857637839374
H         2.80992087313754   -2.13155100153537   -1.79004962455988
H         2.75077142061589   -0.63088036481593   -3.98605540121309
H         5.45692317268862    2.88022627179650   -2.56031785692485
H         4.38618519058007    3.37757112184490   -1.16843766704102
H         5.31057975996751    4.98596801988729   -3.52138246872542
H         2.24587732152937    3.84193674733659   -4.60354294600542
H         1.62722477428006    3.27243262610793   -1.77842578149240
H        -0.41247379575369    3.68913666832792   -4.00512307928348
H         0.29989988550305    4.97587282920790   -2.98611157305238
H        -0.68832529962985    3.97398493008517   -1.20436110405335
H         1.45286468657185    1.34564951875497   -4.19008205942955
H         0.13501003608442    1.34042506221371   -3.05271139736976
H         1.21403935113529   -1.16917202800179   -1.04042701857193
H         0.08191871374652   -0.65860099954488   -2.27636808483552
H        -0.33389699105275    1.38078823286240   -0.80374015479673
H        -0.57029022615289    0.13858601868696    0.14442315243554
H         2.56749381018160    1.84075123821682   -0.50340529738695
