35
 energy: -49.726245473917 gnorm: 0.107100247002 xtb: 6.4.1 (79825abcba525fcdf90b791dcacef51065a7a4e7)
C         3.61721684844229   -1.52170047671239   -2.46309947305654
C         2.98758835932181   -0.27549356602190   -3.06809596286773
N         3.95636586677328    0.85725051161955   -3.13323432533994
C         3.76467125120272    1.63570039554640   -2.10751634969747
C         4.29821084452879    3.03208970584377   -2.05665073696052
C         3.65034316575115    3.84072562323863   -3.18700360036062
N         4.25012005408372    4.78613822140211   -3.83977270215191
N         2.31235001880400    3.62808482329271   -3.47435019014443
C         1.26123902022764    2.95982238402982   -2.68283395171087
C        -0.05674991168123    3.76828498221232   -2.80083913648132
O         0.01262604357674    4.97354705176415   -2.03862113743419
C         1.11944541357736    1.48394823303940   -3.11637934800153
C         1.88805118091248    0.46796395791782   -2.22364599976544
C         0.95207795679825   -0.46140971450094   -1.39027017424360
N        -0.26208122978217    0.22914639522694   -0.92826183784043
N         2.76674340900188    1.17229953931942   -1.26898987669819
H         4.01928320250166   -1.23967079543028   -1.48275280448972
H         4.47955608157470   -1.70395203521155   -3.11294368741212
H         2.86301299821629   -2.31056341975175   -2.42817845086508
H         2.58865093092361   -0.42924405936765   -4.07998733038065
H         5.36832206746621    3.11731891131000   -2.26223547984251
H         4.07132561963033    3.40193815958137   -1.05479784827897
H         5.25491353712699    4.90484161584862   -3.65950312571790
H         2.05718582923592    3.78789045234167   -4.45172370527117
H         1.54455601162437    3.00896300917323   -1.62270350266851
H        -0.88453074663888    3.25383104642609   -2.30209708847675
H        -0.41508834896851    4.04373505609747   -3.80065919072572
H         0.25314154117552    5.69681340094847   -2.64846156306395
H         1.60010634581778    1.38649773367900   -4.09899762956433
H         0.03424408209576    1.31473754891000   -3.12781137776601
H         1.48973223843118   -0.91780455457606   -0.55956265514983
H         0.59253113209573   -1.32634278193335   -1.96149480312481
H        -0.76892435642763   -0.48216396530291   -0.40716284894981
H         0.01830346189099    1.02561847247409   -0.35379535447859
H         2.29584593902767    1.59023154696263   -0.46908870552505
