35
 energy: -49.722794276562 gnorm: 0.104241838928 xtb: 6.4.1 (79825abcba525fcdf90b791dcacef51065a7a4e7)
C         3.68031997170097   -1.40902224230114   -2.92190635890382
C         3.01418515129910   -0.07024219252334   -3.20371621264359
N         3.94135431221629    1.09335892746944   -3.09293823552314
C         3.65398159412844    1.69188700249876   -1.97311260209163
C         4.12162192155210    3.07439246901724   -1.64578089969435
C         3.54194503992142    3.95198368203634   -2.76163507013329
N         4.05859627665852    4.98570240873815   -3.34827113795247
N         2.32612021179029    3.51452581786713   -3.26004297267509
C         1.16469582930134    2.92582358661693   -2.56547111047954
C         0.07476828104235    3.91064183790399   -3.06228374183232
O         0.30969248177348    5.22053874785993   -2.54515062019404
C         0.98908706390726    1.47214653344229   -3.05766632230694
C         1.83604462488198    0.42117526090255   -2.28431392351747
C         0.98299060544313   -0.74035884728543   -1.68645619633938
N        -0.03230130338179   -0.20578823891211   -0.76563126336651
N         2.64964501151963    1.08088160136129   -1.24392992324826
H         4.41695443911490   -1.40206447256883   -2.10974940285342
H         4.16307147281041   -1.65768519963627   -3.87283211945311
H         2.92274062765871   -2.17259572462457   -2.73381932064348
H         2.67770111047944   -0.04901377112013   -4.24920282319747
H         5.20718557805077    3.19928615536964   -1.62087655230187
H         3.76973159764199    3.35535670938435   -0.65119240501924
H         5.01092334795606    5.23725528544999   -3.05502745829972
H         2.19089488765567    4.04684241403590   -4.12274729699514
H         1.27598668755875    2.92606872105988   -1.47268834850799
H        -0.96449490712628    3.67354961263699   -2.81259014322683
H         0.25788854205114    3.95679823168970   -4.14314260923916
H         1.25947420960332    5.27877423238233   -2.32745689231617
H         1.33767627515535    1.58930264064443   -4.09247558850644
H        -0.04728401257955    1.12801645270441   -2.93962247836586
H         1.49958860616024   -1.58980872725472   -1.24035672086571
H         0.41765655005037   -1.20650605135530   -2.50302516881866
H         0.20982698646468   -0.15439250703233    0.22084169652547
H        -0.89996063136232   -0.74033773079817   -0.69915412248625
H         2.11730747463666    1.53478985436420   -0.50444529970903
