35
 energy: -49.724845031223 gnorm: 0.097697354806 xtb: 6.4.1 (79825abcba525fcdf90b791dcacef51065a7a4e7)
C         3.80763409384153   -1.32977570112046   -2.67159159400785
C         3.02922263677426   -0.12606250976265   -3.18211544294775
N         3.97741558451754    1.02220470306574   -3.09104106091849
C         3.71176263963234    1.62411825132408   -1.96767246112387
C         4.24535274122702    2.99335471264203   -1.68905436543239
C         3.58816950282097    3.87536739742416   -2.75745784940916
N         4.10593083175466    4.96440824313546   -3.23238737534748
N         2.47621321378919    3.39961850038700   -3.43216226967742
C         1.24931588529654    2.90454814420470   -2.77830045103949
C         0.01939166424637    3.76422459662061   -3.16929231634889
O        -0.12152952227654    4.99534407057913   -2.46011531925764
C         0.98164146146204    1.41907408774530   -3.10691690175181
C         1.81885893448410    0.37649268938748   -2.31190582108599
C         0.79680561579615   -0.59783336600261   -1.64828522951161
N         0.12290515628204    0.11349625610212   -0.55084716185005
N         2.65067653525375    1.04717164656554   -1.29316829241477
H         4.86420361840596   -1.23463867058188   -2.94887748691090
H         3.35464223708550   -2.17943880301865   -3.19314032075118
H         3.80928083053345   -1.41762378744632   -1.58318557268996
H         2.67591698602242   -0.32381700500718   -4.20328276122260
H         5.30442981188931    2.96095699652950   -1.95733275310798
H         4.13462632553564    3.35684521521353   -0.66553675437024
H         5.07404445981423    5.17372198004801   -2.95826819334538
H         2.28812676671404    3.97578647383867   -4.25590953534592
H         1.30269710109791    3.14693317065332   -1.70827249106150
H        -0.90490871435827    3.21160204314664   -2.97204952935985
H         0.22398594402135    3.97902908221911   -4.22566324878682
H         0.52690111122624    5.68445219793589   -2.69997978292192
H         1.26410363661158    1.33649665069126   -4.16496524732661
H        -0.07446304852640    1.12200002935625   -3.05385904137467
H         1.18496831950153   -1.50624550640217   -1.18832822471403
H         0.14347704783142   -1.01354523637161   -2.42547640419474
H        -0.10541984972343   -0.54091436740641    0.19347196701015
H        -0.67783238625303    0.62566008426718   -0.92434774578729
H         2.12681039037466    1.58729681684517   -0.60754263354575
