35
 energy: -49.717802150860 gnorm: 0.114120444819 xtb: 6.4.1 (79825abcba525fcdf90b791dcacef51065a7a4e7)
C         3.31947432907109   -1.55787780642556   -2.74773522458785
C         2.85854100045664   -0.16332570390145   -3.14554085521538
N         3.99893563570546    0.79863358223844   -3.14958970403849
C         3.83603079534758    1.60862922580830   -2.14350945360957
C         4.51219025692289    2.94117817671600   -2.07811379454961
C         3.51089281656269    3.89244269554700   -2.74431307966199
N         3.89567281607038    5.10164538371629   -3.00778614839109
N         2.43410030545545    3.40370276974781   -3.46518829353111
C         1.20145074110517    2.98906235937981   -2.76765306175964
C         0.04140233794484    3.80194679248112   -3.39863520031763
O         0.06693419095935    5.19378166394877   -3.08147628590975
C         0.80586921536294    1.49709818209226   -2.82953764575646
C         1.82282228065838    0.51749851118639   -2.17674164737004
C         1.04384482611443   -0.53033651205646   -1.32261494285670
N         0.36266409908797    0.07317817036102   -0.16664573594045
N         2.74234571293068    1.32077704741471   -1.34681564742510
H         3.89812836681635   -1.51084968139853   -1.81756022278785
H         4.05900336593547   -1.86599933735885   -3.49426051157599
H         2.57290400038535   -2.35410942355498   -2.77928856978177
H         2.40883502924547   -0.18243332964652   -4.14759566674788
H         5.49721740612591    3.07868061225726   -2.53141471970094
H         4.64608522616003    3.34177999189790   -1.07135447443871
H         4.76781741719878    5.37633304286458   -2.53862939654396
H         2.26413693610753    4.07676328763034   -4.21619269526657
H         1.20457078505099    3.20391242001284   -1.69043924052530
H        -0.84056057514216    3.33553921591350   -2.94782149414346
H        -0.07835653035717    3.48207277951805   -4.44135173088019
H         0.88301958065862    5.63613296651075   -3.38346506418073
H         0.66418049929128    1.15994220003233   -3.86506666898767
H        -0.17321070050553    1.28178449689171   -2.38068644199246
H         1.67033273693620   -1.35724536863811   -0.98918130794713
H         0.32781107699942   -0.98384512056039   -2.01925424636933
H        -0.62300776421083   -0.16578118909884   -0.09084378132049
H         0.88163373171903   -0.25941500138836    0.64763148212162
H         2.36809139961488    1.66157268960812   -0.46361380548004
