35
 energy: -49.721734524256 gnorm: 0.107729990984 xtb: 6.4.1 (79825abcba525fcdf90b791dcacef51065a7a4e7)
C         3.61882065062615   -1.40481226386398   -2.72401710106812
C         3.00108675981648   -0.14008178396612   -3.30224379565834
N         3.96343630249332    0.99961505516378   -3.27297801386183
C         3.74965843652430    1.63138838002200   -2.15494853056434
C         4.34795659003741    2.92748322980354   -1.70848192573461
C         3.58315954455088    3.88512144757779   -2.63007659980946
N         4.08086557889868    4.98372021513102   -3.10443329998100
N         2.30089022973405    3.58555022443405   -3.05908982717205
C         1.08857368152203    2.94574797711762   -2.51241929310954
C        -0.06590998623642    3.70058630002794   -3.22095188329733
O        -0.04746389782726    5.10141328148191   -2.94565299655455
C         1.08888793221717    1.50625812230994   -3.07290161492501
C         1.91392176669686    0.42613130601933   -2.31620026237168
C         1.03808822257619   -0.56474295850215   -1.48832324421523
N         0.04644811006058    0.06966250155720   -0.60589388610149
N         2.78752423123290    1.08461480004653   -1.32485007919056
H         4.41888979737719   -1.72174041090222   -3.40351956255249
H         2.84687378894417   -2.18119909238933   -2.74554891651601
H         3.94916064174009   -1.37533911973331   -1.68365442828404
H         2.67299604597256   -0.30795733288248   -4.33708132208151
H         5.43056344654545    2.97434532217124   -1.85142766105712
H         4.02692118650824    3.21997923107669   -0.70680514432911
H         5.08689250540137    5.06367621440673   -2.91023126178499
H         1.98844123967504    4.17481087248858   -3.83436598898295
H         0.87845004342188    3.02714162574301   -1.43734580022450
H        -1.06079461532323    3.42150401441714   -2.85908829946040
H         0.02015186366590    3.52561419885134   -4.30071920058681
H         0.83658703502813    5.46179873775183   -3.14922984383222
H         1.43726446181216    1.64700238263375   -4.10483914468952
H         0.03689544237268    1.21612024685904   -3.19762808676491
H         1.69501439815375   -1.05852961439767   -0.77273530296261
H         0.56355705394354   -1.37562122312240   -2.05487184024004
H        -0.21700216508390   -0.65560865807933    0.05665591338600
H        -0.73839879675869    0.38693985695636   -1.17716045939790
H         2.53747596562389    1.43140154967954   -0.40101659914288
