35
 energy: -49.729733307661 gnorm: 0.103713104145 xtb: 6.4.1 (79825abcba525fcdf90b791dcacef51065a7a4e7)
C         3.59050049904454   -1.31579933011120   -3.08928085845401
C         3.04401672484856    0.09412019141262   -3.25947745037630
N         4.13206165202931    1.07543944830512   -2.97831421545564
C         3.75135444430821    1.64876626497339   -1.87324099404528
C         4.29295158410619    2.99732906950979   -1.51939657783892
C         3.64440787994758    3.82020674398251   -2.63903295317223
N         4.33101032186326    4.66506241106993   -3.34219780704898
N         2.39493549271742    3.51078081176755   -3.14999694742841
C         1.12900623685762    3.01495755275489   -2.57598527625812
C        -0.07034615916900    3.79941115604936   -3.16828437503765
O        -0.14263611457881    5.13291398451388   -2.66331870194543
C         0.82772984292340    1.54334630107186   -2.93635234840291
C         1.83906290839372    0.52122263111087   -2.34270231793243
C         1.04847210765019   -0.65749116334561   -1.69470804607309
N         0.12529689070865   -0.10119686535341   -0.69331593279174
N         2.62830097664031    1.13031344748950   -1.25381820085951
H         4.04284543421197   -1.43969044160511   -2.09816394552301
H         4.38546672762438   -1.57334046612382   -3.79698371988402
H         2.75935594105206   -2.00615213650064   -3.24726628713837
H         2.79860469920471    0.15366493674359   -4.32856200602591
H         5.36432048120186    3.11712738847841   -1.69963033222374
H         4.07260554332727    3.33239666569129   -0.50394035818851
H         5.32561803671790    4.73495962857735   -3.09306442932741
H         2.27157313830220    4.02721439694083   -4.02405855246020
H         1.10738931098596    3.11472469447398   -1.48230382417989
H        -0.97975005617294    3.27187719520482   -2.86280103528431
H         0.09457758312937    3.81053451468214   -4.25299436672974
H         0.73650861543409    5.55706560168710   -2.67151686629174
H         0.82438452011326    1.21678084536831   -3.98488181000316
H        -0.14972831414493    1.37692968318485   -2.46379976227472
H         1.77606627279647   -1.29960757288475   -1.19898975991398
H         0.45485380983621   -1.16429330668264   -2.46571363700944
H        -0.05981502134132   -0.70818478314041    0.10147698858119
H        -0.74891307928187    0.20173381358012   -1.12573357815342
H         2.10371599839973    1.52611662130847   -0.47638399968825
