35
 energy: -49.733164719730 gnorm: 0.101780203996 xtb: 6.4.1 (79825abcba525fcdf90b791dcacef51065a7a4e7)
C         3.66075457976363   -1.40498804881552   -2.62930439114051
C         3.10154626271360   -0.08903369933075   -3.14991429441587
N         4.13490189430560    0.96923181964933   -2.95463948657377
C         3.72206076622297    1.64994195882555   -1.92457912475790
C         4.13286543306836    3.05884444695559   -1.63580885077661
C         3.66857652860481    3.88418890542011   -2.84186214062832
N         4.29699116235986    4.73806039116704   -3.58727702305787
N         2.32773415222306    3.75265760698935   -3.16256619494985
C         1.19067125815349    2.97236765257230   -2.63707353712342
C        -0.05532289712865    3.76263119731612   -3.11416256396630
O        -0.01084130187059    5.12021389363955   -2.67434831553525
C         1.02032491172452    1.48824465001884   -3.03030702721159
C         1.90628117073025    0.45162311034050   -2.28167560304630
C         0.97916795598013   -0.64309438396594   -1.66820083879754
N        -0.19245896319788   -0.01073098627703   -1.04217457571902
N         2.67353762648527    1.10683416135138   -1.20391265161410
H         4.66257862817949   -1.57852794046299   -3.03980429079608
H         3.12767253513436   -2.31342841799615   -2.92880683131954
H         3.64880549302576   -1.39153717787004   -1.53750589086193
H         2.76050155505324   -0.01215329685006   -4.19130391514647
H         5.22141722769411    3.02653626301636   -1.54265135927627
H         3.65960373576876    3.39474946701090   -0.71105743144331
H         5.31020326689087    4.76663491102018   -3.41762357121444
H         2.18661979455941    4.07336673164060   -4.12336690073660
H         1.19884728981882    2.96920818083420   -1.53867330821056
H        -1.00195009801134    3.33417615022856   -2.76927010450810
H        -0.07469114164131    3.84708796993488   -4.20796842343926
H         0.89882833009471    5.46333340767584   -2.76174065344541
H         1.17015026929932    1.25028234194972   -4.09190794828124
H        -0.02290677485702    1.23722951737894   -2.79560736391403
H         1.51103693291830   -1.32419190894321   -1.00437486867669
H         0.62930516038500   -1.37655579951626   -2.40529722950820
H         0.09788134319590    0.39222443357717   -0.15463529399779
H        -0.94670235098617   -0.66116399673863   -0.81623454551807
H         2.12280815167962    1.63351041420226   -0.52895882774785
