35
 energy: -49.712604291574 gnorm: 0.119140125605 xtb: 6.4.1 (79825abcba525fcdf90b791dcacef51065a7a4e7)
C         3.50301439119884   -1.34797314357427   -2.46861283323517
C         2.82133365191401   -0.13892914057850   -3.09231822339402
N         3.88389966556298    0.90836758683070   -3.09456324724946
C         3.73550360137005    1.66405190643124   -2.04492128762876
C         4.25583166052085    3.06368751162513   -1.95870163305672
C         3.81785664810532    3.75079218264652   -3.25769634674838
N         4.41956926285547    4.62775650804724   -3.99831792191153
N         2.59076727046301    3.30223317444558   -3.71710504214889
C         1.40583841398467    3.12859241798644   -2.85472491165139
C         0.28626351152649    4.14260308354337   -3.20539031716218
O        -0.94403558724942    3.86776314683997   -2.53511195157636
C         0.94491320309559    1.65586445189407   -2.92466645932244
C         1.76977218693386    0.57659704783728   -2.16654958518392
C         0.92862323183663   -0.43855298392394   -1.33214237662881
N         0.10131835398820    0.32980278726955   -0.38890432492027
N         2.69052005299150    1.25741964386466   -1.23474440336993
H         3.67322559169834   -1.22240670134317   -1.39272301706164
H         4.47690422487112   -1.30081870113093   -2.96706758226072
H         3.00532658924241   -2.28631795978274   -2.72191802936255
H         2.46918479469960   -0.17955762200601   -4.13205613510319
H         5.34500515868113    3.10519881204282   -1.87718449432754
H         3.81028866731410    3.48289866408287   -1.05441879328119
H         5.17919060569071    5.09141999557991   -3.48432458184649
H         2.33224456402536    3.61402605275327   -4.65617735830664
H         1.74804378254594    3.33858493517538   -1.83229715409428
H         0.11872766413636    4.10486419140086   -4.28665582917990
H         0.61110672357643    5.15632417874609   -2.93937198558097
H        -0.78802038759888    3.86905770098197   -1.57151201316825
H         0.93431666705162    1.29908788556989   -3.96325608134462
H        -0.03677873472416    1.56711296819925   -2.44007489171558
H         1.64361092629168   -1.05772101041931   -0.79097058350169
H         0.24395472049012   -1.12995704979274   -1.83896595458072
H         0.02214957655255   -0.34741226842613    0.36575362076925
H         0.68514319370677    1.07336816902207   -0.00257005811437
H         2.53438555049184    1.85056823703178   -0.42230964272942
