35
 energy: -49.722705375394 gnorm: 0.107861935995 xtb: 6.4.1 (79825abcba525fcdf90b791dcacef51065a7a4e7)
C         3.53928709789921   -1.43505891969624   -3.15634419719103
C         3.04866293278603    0.00518218381177   -3.13448360948684
N         4.10190700846460    1.02411171376114   -2.85458810154252
C         3.71036331796258    1.66305049924838   -1.79003224187411
C         4.18743817493873    3.06250027853778   -1.56399059162835
C         3.52333205893435    3.95800329566382   -2.61677718422946
N         4.01700966741822    5.03821229307722   -3.13550230633848
N         2.46564193383037    3.37677683707379   -3.29609836354495
C         1.18724071198643    2.89724279460733   -2.73605871786844
C         0.04947982991207    3.74619147302761   -3.36009249619173
O         0.27418949469609    5.10562860796588   -2.98608420164736
C         0.91502824615532    1.39511910397142   -2.97227118174666
C         1.84899173350529    0.41679539768699   -2.20380088822237
C         0.97168799830008   -0.67227764040421   -1.51202448713679
N         0.17073004462370    0.00003217754531   -0.47714873106536
N         2.59555619839155    1.14282573344412   -1.15734096404611
H         4.34599777496640   -1.58122020290546   -3.88444613407766
H         2.68613246729572   -2.07378143347288   -3.40794466828184
H         3.91321261967422   -1.85706601386608   -2.22123063878266
H         2.91765073618608    0.11443116450680   -4.21966325731092
H         5.21768110552678    3.04705480198823   -1.92872075765963
H         4.01187969904120    3.18684578396298   -0.49362083743734
H         4.89366849273086    5.39239706134568   -2.73273684608170
H         2.34998022068025    3.94572809350868   -4.13801430039247
H         1.11253659541709    3.08256841513119   -1.65595057521824
H        -0.89105936927603    3.32225023881407   -2.99363998762410
H         0.01554457706106    3.59498616462214   -4.44632667220106
H         1.21156601292678    5.32637061409189   -3.14566330712920
H         0.85119803566399    1.20237865635163   -4.05155197061559
H        -0.09572139132803    1.31066299515369   -2.55075343555960
H         1.59354119206087   -1.47438885285106   -1.11533877183239
H         0.36460571798616   -1.07722163885342   -2.33126325874047
H        -0.23197716982187   -0.69180740514331    0.15021195308154
H        -0.61696191649591    0.53173783168674   -0.85108128498471
H         2.02195084710164    1.67866457027798   -0.50918425768713
