35
 energy: -49.719590540229 gnorm: 0.112218964232 xtb: 6.4.1 (79825abcba525fcdf90b791dcacef51065a7a4e7)
C         3.53228142205919   -1.37744632912734   -3.06180181480813
C         3.00168468406066    0.04364349419955   -3.18203161121592
N         4.08585493609613    1.02343457063804   -2.88125549859000
C         3.60487754336960    1.74650667701522   -1.91138134969271
C         4.03573918145247    3.14212657873786   -1.58926607856491
C         3.49067090276307    3.93541651013320   -2.78296363564132
N         3.96636198600352    5.10953224945261   -3.05648700191609
N         2.50944341849128    3.29345257067519   -3.51990650060498
C         1.27575305395863    2.91945000286549   -2.80154924181033
C         0.15095001980638    3.89563704990048   -3.23341590121385
O         0.55805758653285    5.23894175246814   -2.97218446627566
C         0.80604347554724    1.44908169913864   -2.86205931926627
C         1.79193864041089    0.41464381612125   -2.24732310402490
C         0.97314442467278   -0.74486811982359   -1.59970857745014
N         0.10947774208678   -0.36744307873634   -0.47004839288625
N         2.55647551334120    1.15849614170125   -1.22667429816281
H         3.76666273110630   -1.62023283457337   -2.01853876900074
H         4.43603431514898   -1.46217981885907   -3.67433182423250
H         2.85064920359920   -2.15172611579201   -3.41987440719277
H         2.56496841061315    0.32936863558573   -4.14865172349735
H         5.12621872870289    3.19381788465636   -1.64264684387203
H         3.65260449043979    3.39136080664020   -0.59777018945333
H         4.76031084235174    5.41571832061081   -2.48021201008040
H         2.20428017426232    3.72336892529784   -4.39623573288185
H         1.52617496862056    3.18716591882644   -1.76608946854522
H        -0.80184212971552    3.73229976874418   -2.71947461890146
H         0.11699618172806    3.65419137864946   -4.30321516281069
H         1.10207309449789    5.60581011130406   -3.69490294129386
H         0.53009272749312    1.12234189467100   -3.87357425532241
H        -0.04925828982436    1.39182344224659   -2.17532410741320
H         1.74913258725108   -1.44825020343762   -1.29881098769156
H         0.37007345171259   -1.21245704939801   -2.38796404403175
H         0.65912621337442   -0.22544042756602    0.37382264914599
H        -0.59851536576995   -1.03997275864067   -0.17097538707443
H         2.05922452342622    1.58484986760805   -0.44743273927011
