35
 energy: -49.709617185907 gnorm: 0.117313454503 xtb: 6.4.1 (79825abcba525fcdf90b791dcacef51065a7a4e7)
C         3.76853170931474   -1.41157760722790   -2.56166005451668
C         3.17814586477645   -0.14497971257745   -3.16387161009646
N         4.22929232852721    0.88804614243444   -2.93185719568455
C         3.84300892110338    1.59100284514055   -1.90644732560365
C         4.22481581287518    3.01339675099508   -1.64534586049716
C         3.56769600522801    3.82151328429433   -2.77071840958535
N         4.18882659897158    4.19934886257292   -3.84360324059265
N         2.21150842896872    4.08487496886674   -2.86770146605199
C         1.18556850978311    3.05763413532270   -2.60287980340520
C        -0.13363465820420    3.71587131399477   -3.08356538858815
O        -0.35086776125484    4.86668517155108   -2.26693621786564
C         1.38368911118399    1.65352214122900   -3.21565155210158
C         1.96897203878399    0.48169250665245   -2.37647884579407
C         0.86851744214314   -0.46643148613475   -1.80695529379855
N        -0.25093376379827    0.28157587128680   -1.21381455609538
N         2.73790715593244    1.06672459485280   -1.26022028932407
H         4.73393724744602   -1.68867279868820   -3.00153285228297
H         2.97938412812735   -2.15622006078981   -2.70963232509261
H         3.99565215357904   -1.22152054638510   -1.51064041493981
H         2.91855257337460   -0.20089868804576   -4.22979787199330
H         5.31543870840441    3.08538110709315   -1.65054913271951
H         3.88861273253120    3.34507319271862   -0.66100231958000
H         5.19719060816636    4.09371418347369   -3.67555292843287
H         2.15921825497359    4.33818639330443   -3.85714811510838
H         1.07132713197516    3.01400924169081   -1.51127289318291
H        -0.99764757879463    3.04354118988866   -3.07453976414888
H        -0.07923133010637    4.19475052197531   -4.06928051247352
H        -0.30579514952972    4.49447321825448   -1.36566268355200
H         2.02884269153908    1.81776501159033   -4.08907660991654
H         0.39145856865246    1.36331008335308   -3.58670460560885
H         1.33271913065578   -1.08959049954268   -1.04299653581553
H         0.59999061203461   -1.17907064806147   -2.59671440712292
H         0.04289331144662    1.02712901151295   -0.58754568749088
H        -1.08140798910289   -0.12799013340853   -0.78304394445168
H         2.27828609032029    1.78405172165037   -0.70304549452429
