35
 energy: -49.713780828093 gnorm: 0.107286441375 xtb: 6.4.1 (79825abcba525fcdf90b791dcacef51065a7a4e7)
C         3.20972382159156   -1.57618236801932   -2.42863181221871
C         2.76388100361625   -0.24987478892144   -3.02664253662251
N         3.93848844553887    0.60769713386878   -3.35943338444884
C         3.99142504981570    1.51422856537851   -2.42657387481217
C         4.69439125326859    2.83437764318562   -2.44070927044530
C         3.82791650545914    4.02067174114430   -2.88031132983482
N         4.31249152025688    5.16737975587007   -3.24071747063777
N         2.55020839747892    3.79963111327583   -3.36674002743135
C         1.45681530354970    3.24066969342752   -2.54822877595985
C         0.11953496090097    3.89476926646806   -2.98235651233087
O        -0.94437290207941    3.60159017950123   -2.07649115437736
C         1.20572134660018    1.74198610931062   -2.82602527533739
C         1.97035511895434    0.65674987670127   -2.01513119243278
C         0.98118088523811    0.07186034061532   -0.95979469751925
N        -0.26934772911386   -0.22776535947221   -1.67457060803387
N         3.12132771786474    1.31817377486731   -1.36911459599476
H         3.04891926180281   -1.67121267798877   -1.34817412588211
H         4.28283706586357   -1.57145514588538   -2.64668616789918
H         2.63247052050513   -2.33323792888193   -2.96341510766060
H         2.17299146567625   -0.31645037469151   -3.95029380244172
H         5.48933244822229    2.87836703617880   -3.18957545532988
H         5.19702931512641    2.91382650285704   -1.47478130284696
H         5.26631744935492    5.30226662116820   -2.88264038962583
H         2.16607086443669    4.53552992591109   -3.96406480806878
H         1.62091426190610    3.46634012421256   -1.48582382590028
H        -0.06412142080549    3.53435269897153   -3.99970494501000
H         0.20341352115475    4.98573659728727   -3.06405109386783
H        -1.51055622014998    4.39387253857209   -2.00872408541716
H         1.34042924211266    1.49374153169347   -3.88729744896446
H         0.15932184180188    1.45411595999446   -2.65689889246952
H         0.71598808496660    0.85320174277859   -0.24802103111358
H         1.42822894352464   -0.77709712485777   -0.42772331465931
H        -1.10583068415079   -0.12388307953524   -1.10544735672178
H        -0.21430846601829   -1.15848818871617   -2.09136885657754
H         3.03713604472934    2.11684949541102   -0.74358894997664
