35
 energy: -49.722554325677 gnorm: 0.100445982055 xtb: 6.4.1 (79825abcba525fcdf90b791dcacef51065a7a4e7)
C         3.51132732511915   -1.50597059392602   -2.68623901398231
C         2.94036733218731   -0.21499248471689   -3.25445084890364
N         4.00588395225735    0.82736656212638   -3.31804313049962
C         3.86223024244994    1.54777536776106   -2.24323933776061
C         4.50115603497989    2.88879824176430   -2.06834961897128
C         3.69549701691032    4.04961778657095   -2.66394487266151
N         4.18803951017740    5.22701259059169   -2.88930719040975
N         2.33847699669975    3.90325942912095   -2.89864836560589
C         1.23946076637979    2.98659278065711   -2.53838104205896
C        -0.06550664557422    3.61409224587255   -3.09330116024343
O        -0.25897845166830    5.01147492676677   -2.87344605171937
C         1.09062578971265    1.53267532887243   -3.03862473164699
C         1.91653511517611    0.46156572417756   -2.27015238451512
C         0.95496987102453   -0.59798086432082   -1.64801901724825
N         0.00644443845517    0.03230930497258   -0.71660299758901
N         2.88442746352867    1.11384677538724   -1.36612206717238
H         3.93622606769217   -1.35253699952059   -1.68714098045916
H         4.36855167984510   -1.72410905373462   -3.33178073124561
H         2.88112542326418   -2.38967532367842   -2.80565085422433
H         2.50092298903547   -0.44582908683746   -4.23440879372487
H         5.53559407831840    2.98011712504094   -2.40932752438051
H         4.59734544461340    3.00856659265250   -0.98743466046260
H         5.20917406273321    5.33805543472622   -2.85537674767786
H         1.99466624206733    4.81199613939007   -3.21786202139529
H         1.03140352327693    3.01604882834619   -1.46023243451188
H        -0.91224155285201    3.14371798156627   -2.58299179071217
H        -0.20688758422406    3.45956115045622   -4.17035775453749
H         0.00415807215189    5.12820013955679   -1.94070725805129
H         1.35921243663627    1.41437156052276   -4.09689485515193
H         0.00854295879845    1.34961737418467   -2.99377586868923
H         1.52725369450225   -1.30572050726361   -1.04882021950412
H         0.52580927011646   -1.00245841194954   -2.57316755698593
H        -0.59989588103358   -0.65532008922195   -0.27624657929996
H        -0.68536498014864    0.59107768404387   -1.21877101307849
H         2.57892154969888    1.60022801894406   -0.52567402443912
