35
 energy: -49.718767256344 gnorm: 0.125666587476 xtb: 6.4.1 (79825abcba525fcdf90b791dcacef51065a7a4e7)
C         3.55351358575699   -1.48285169963722   -3.01271262256220
C         3.08674138330057   -0.03826536532318   -3.11653200630472
N         4.02731525534423    1.10234716478411   -2.91601807743909
C         3.65202746652676    1.77502642704470   -1.86649910130952
C         3.98292009663607    3.19469899583069   -1.53154424211787
C         3.59340894788317    3.99249755500554   -2.78179249216269
N         4.32371161577832    4.85450114305340   -3.41681423152378
N         2.46173022026432    3.47223980884812   -3.38730464104199
C         1.26040815474555    2.93147791574351   -2.72224161389889
C         0.07325285339384    3.79317458781239   -3.22500693583283
O         0.13997498168752    5.11515932980416   -2.68988969877046
C         0.95043198448951    1.44284055988810   -2.99453763251171
C         1.85760773014688    0.42221115390854   -2.24935344485625
C         1.00164592798701   -0.69691077412798   -1.57913551582855
N        -0.05097312462418   -0.19148823101660   -0.68412537018804
N         2.63563385172478    1.11264857835678   -1.20172351588791
H         4.36027459488460   -1.91206623423756   -3.61867403222687
H         2.64662385685303   -2.09341097491542   -3.07524639569494
H         3.83870335945575   -1.68385573235571   -1.97800887870706
H         2.82303817937040   -0.03909322976221   -4.18291578285044
H         5.04887784971625    3.40078121629857   -1.40532494510131
H         3.47778365520389    3.51658579872116   -0.61874632197003
H         5.10354360137113    5.10521936870214   -2.79616939577844
H         2.41283024032979    3.84695065987313   -4.33762361623940
H         1.33151512301197    3.33576304955885   -1.70339068809244
H        -0.86442723340849    3.44900439552450   -2.77675418513940
H         0.01954063487394    3.77149220617567   -4.32070954099518
H         0.90349705015679    5.55982528981566   -3.10482764106154
H         0.95643424204447    1.22002680432234   -4.06989255467389
H        -0.07667575576893    1.22301355590446   -2.67336688083883
H         1.65052160304075   -1.44411646263644   -1.12296955920364
H         0.58139830520947   -1.16404365619906   -2.47850169572583
H         0.43774634165635    0.00983692704472    0.18479235013500
H        -0.77797638607293   -0.90182130070410   -0.58468556662239
H         2.08051184132252    1.66150179786994   -0.54838349625178
