35
 energy: -49.729285837320 gnorm: 0.109711826525 xtb: 6.4.1 (79825abcba525fcdf90b791dcacef51065a7a4e7)
C         3.70913068556181   -1.28685987012738   -2.68443884534652
C         2.92027110490983   -0.07156573898154   -3.14946054181347
N         3.92465609158978    1.03137606710919   -3.12471820981379
C         3.68733124150353    1.69223369781519   -2.02846434384008
C         4.26171932876926    3.04223962671841   -1.73740202986948
C         3.86852733125115    3.79545513641878   -3.01387712914929
N         4.59164959658963    4.70637967564601   -3.58567736114222
N         2.60006782373086    3.61670823930913   -3.54025142554312
C         1.44067823112814    3.10966494307589   -2.78088994338554
C         0.24055879255424    4.06639250172259   -3.00228900395294
O        -0.78137762948053    3.97845975788608   -2.00913255304401
C         1.00079906746578    1.66202006898411   -3.09250216872255
C         1.75829406532553    0.56006923951366   -2.29760760075006
C         0.85240787499955   -0.51006467824926   -1.61315149835223
N        -0.16526704164140    0.09042395114153   -0.73665099213379
N         2.66154585596732    1.13881340612844   -1.28333528054889
H         4.27996359944215   -1.06948124821552   -1.77384892646905
H         4.47112430294886   -1.64934016409978   -3.38237569150295
H         2.99701844239030   -2.09247831869112   -2.49411613374558
H         2.61196348376911   -0.23512789718830   -4.19104983342504
H         5.35309054500393    2.99495034668254   -1.77400453267379
H         3.97828473453681    3.62414072831620   -0.85818081544817
H         5.54374667551820    4.68570781108435   -3.19930785192916
H         2.38680066006200    4.21363870648621   -4.34280780041983
H         1.62431597676060    3.14343131615827   -1.69844045030420
H        -0.17700453716485    3.85295200375798   -3.99158755072433
H         0.59268597464585    5.10335414415376   -2.93419841268387
H        -0.35850657613056    3.93033673136754   -1.13065005089136
H         1.05142397782761    1.43017202314481   -4.16476790269900
H        -0.07402486683360    1.65758149788225   -2.86631931797942
H         1.44123306116236   -1.17851708069853   -0.98553725172742
H         0.41687837624064   -1.14967216691437   -2.39090275647593
H        -0.82888614966459   -0.64553294254163   -0.50779805049278
H        -0.78091299104219    0.75004566070240   -1.21505913209922
H         2.27228017534260    1.65713620112890   -0.49843580128330
