35
 energy: -49.719360545613 gnorm: 0.123363849481 xtb: 6.4.1 (79825abcba525fcdf90b791dcacef51065a7a4e7)
C         3.54501780502632   -1.50488669196978   -2.66861488391763
C         3.03099986174629   -0.12152391825975   -3.03952915535633
N         4.08678398435743    0.92796372001384   -2.94064760960707
C         3.83141677705625    1.67395287750393   -1.90473440810262
C         4.30902185483686    3.08967673016129   -1.83563841810259
C         3.58362613189524    3.89509900428418   -2.92026654153848
N         4.10315053798657    5.01431312581629   -3.31662361897684
N         2.41149388739067    3.44901674910481   -3.50774118105255
C         1.23959503998838    3.00387573524691   -2.72901816253760
C        -0.01392684572481    3.71936583991464   -3.29592963023327
O        -0.18065341382417    5.08012864756171   -2.89721572051880
C         1.00830849754693    1.48662068382995   -2.90427559819554
C         1.88761797024945    0.46277679011707   -2.13064120770586
C         1.06281780082552   -0.66285788994760   -1.43282478225734
N        -0.10803690887001   -0.08174409096436   -0.75761521594874
N         2.74453294808792    1.20771739584941   -1.18707503683013
H         4.29242367783537   -1.84906789550690   -3.39332270985037
H         2.73458405164774   -2.21986455197445   -2.84509679466603
H         3.96312586145776   -1.58376411564441   -1.66297495882035
H         2.73638727039454   -0.04927097962861   -4.09532143576655
H         5.36849679061541    3.21076102939245   -2.07546872964244
H         4.07731166546523    3.39496114398880   -0.81334403611888
H         4.97282522328813    5.39929547763674   -2.92719829409398
H         2.24800690131830    3.98255650428515   -4.36477847767678
H         1.31882119053928    3.15096686038463   -1.64336292541425
H        -0.90066728490762    3.14338050658905   -3.01209890425984
H        -0.04373952239784    3.74286916780848   -4.39250526474734
H         0.74223058252146    5.34999964439530   -2.72892419892232
H         1.00753962319433    1.24372347156684   -3.97528939407930
H        -0.00782376498448    1.44849060405445   -2.48900918578987
H         1.75245875524003   -1.25200015437269   -0.82887934228430
H         0.80601771644936   -1.22283540705909   -2.34065715068600
H        -0.07343897719073    0.29507369014270    0.18642285143211
H        -0.93008789973362   -0.68661124305994   -0.79453373540618
H         2.31137063281989    1.79438659848783   -0.47683344641252
