35
 energy: -49.722144119019 gnorm: 0.114403006436 xtb: 6.4.1 (79825abcba525fcdf90b791dcacef51065a7a4e7)
C         3.74047630793973   -1.35963924275417   -2.81827289687177
C         2.96867768261773   -0.11144681452583   -3.22055015087193
N         3.94929184292427    1.00385102486161   -3.07776146281842
C         3.63225938148523    1.60749953505658   -1.96874057944075
C         4.10762670576053    2.98129899609035   -1.61680892398500
C         3.64690006188802    3.88743699466725   -2.76483640606134
N         4.19085352145470    4.99379104352194   -3.16451147752097
N         2.44304142108273    3.44735673673896   -3.28930146815084
C         1.20319425771470    2.96305727325206   -2.65201030437853
C         0.03061443734796    3.83210555061148   -3.17588384905115
O         0.10412147528447    5.23889464069799   -2.94353255633060
C         0.93427660754278    1.48707687763408   -3.02002758406657
C         1.79091732841104    0.39913326860554   -2.31115730500371
C         0.92861775174108   -0.72026185363474   -1.64957543589795
N         0.14049707845934   -0.03674782010121   -0.61218623433146
N         2.62965838812036    0.98508238867321   -1.24685752352342
H         4.36404048796185   -1.70731283880347   -3.65047988192456
H         3.03888764798402   -2.19598577787561   -2.73201800313568
H         4.29740394139589   -1.17608423622263   -1.89713944419205
H         2.65355162112447   -0.23399507951723   -4.26572568995334
H         5.19132519547660    3.09830028003288   -1.53571994907309
H         3.66709597373378    3.34978202403378   -0.68830101395469
H         5.17366795020809    5.10907401109311   -2.88705301081631
H         2.24642592024681    4.17893526137405   -3.97635373799785
H         1.12012565568959    3.09673396811793   -1.56490863809240
H        -0.88779191967976    3.54369268244662   -2.65437126402105
H        -0.21503824889831    3.63940736901841   -4.22775907730687
H         1.02888759128094    5.54907010927402   -2.98182183554302
H         1.13402731761277    1.42418367959453   -4.09808802667182
H        -0.13694488318938    1.25797851467455   -2.93988191866161
H         1.56746132339526   -1.41565677012131   -1.10574810588746
H         0.24091011465607   -1.24362788184846   -2.32546515409829
H         0.49770148163754   -0.16964336062035    0.33075614410555
H        -0.78305090069589   -0.46127847751223   -0.71132220201123
H         2.13809091322615    1.67613082744746   -0.68377052298518
