35
 energy: -49.719396554645 gnorm: 0.111552594388 xtb: 6.4.1 (79825abcba525fcdf90b791dcacef51065a7a4e7)
C         3.60922893882027   -1.31788683875883   -2.67363851875783
C         3.08858789255333    0.01880749353090   -3.18124624771221
N         4.10076681294301    1.09392648320712   -2.96795070059671
C         3.75405802362355    1.62786322256400   -1.83237463191600
C         4.18780176478722    3.03519997679564   -1.57079370467387
C         3.69904727663658    3.72838027315816   -2.84826867899268
N         4.45990476221994    4.47382527388572   -3.58654535626793
N         2.39819100641242    3.71257637496513   -3.32317185940509
C         1.23805055575039    3.03251863538945   -2.71530464370231
C        -0.02115012374840    3.83521291051367   -3.13330865791120
O         0.03860252569681    5.08712667838253   -2.44950496412972
C         1.08597011528624    1.53341916071867   -3.05566295533102
C         1.88668648134168    0.45834648431966   -2.26634446698047
C         0.95295906739871   -0.64695766856305   -1.68260449454789
N        -0.13804142743315   -0.03727911898724   -0.90638806515474
N         2.66362727640701    1.08361740360831   -1.17778753428513
H         4.60794644005512   -1.62188180364241   -3.00894150503024
H         2.98682017246498   -2.14688872915522   -3.02649156637808
H         3.70508787674723   -1.33670988534600   -1.58607039557817
H         2.87324374004638    0.01923075509382   -4.25843756079413
H         5.27313817856951    3.15268187377025   -1.51684920180098
H         3.70496786916796    3.45352874632933   -0.68544266022521
H         5.42421961706732    4.54505592592185   -3.23837783799799
H         2.36021342744316    3.98297650436607   -4.30874126591203
H         1.45456979055744    3.22474605558998   -1.65571608558810
H        -0.90306254508426    3.23517407303559   -2.88670885131372
H        -0.10454507734430    4.01367052949419   -4.21271473413876
H        -0.85065936200536    5.44324431406738   -2.26172641492322
H         1.24730619364766    1.31600663768172   -4.11998088520134
H         0.00871434863922    1.32327370348558   -3.01342844258571
H         1.55973075425470   -1.20678389008049   -0.97136186684919
H         0.51144043516477   -1.44150198746977   -2.29696701088116
H        -0.48839275877948   -0.75151858587722   -0.27273795205655
H        -0.91361345079480    0.28721487976859   -1.48620421070974
H         2.18825208234891    1.65184242498551   -0.47965271359562
