35
 energy: -49.722657836746 gnorm: 0.115651074851 xtb: 6.4.1 (79825abcba525fcdf90b791dcacef51065a7a4e7)
C         3.57397651460901   -1.34331444921847   -2.28404225515212
C         2.84164885982934   -0.19823147380075   -2.96812241848958
N         3.87662558500734    0.84775996742567   -3.21430754965994
C         3.79799651142963    1.61170726288564   -2.16310327170129
C         4.49710781664298    2.93394455926100   -2.17242317337851
C         3.86526072275544    3.81452487659918   -3.25716726820244
N         4.56614485665725    4.52148432739962   -4.08699531173235
N         2.48561084484167    3.91392377166093   -3.32569415062990
C         1.42791306515602    3.19181580236204   -2.59238487169889
C         0.05876713941951    3.84613150382017   -2.91166886433215
O        -0.86609142071698    3.53942563506888   -1.86811046877965
C         1.26808190893669    1.74084555125028   -3.09776683633123
C         1.85486361702284    0.68430166568236   -2.11830064917461
C         0.79142443380503   -0.24622217643172   -1.45684838153154
N        -0.35131131695056    0.56543789553217   -1.00978582745801
N         2.82282575599484    1.34338832480084   -1.21929505334472
H         3.78174097905454   -1.12133333332559   -1.23055471290651
H         4.46222283992502   -1.35645778013672   -2.92434516061126
H         2.93435126367232   -2.22826611698728   -2.27467421716120
H         2.30595813533457   -0.50725150830227   -3.87600815488228
H         5.55977920376060    2.82028513264112   -2.40150438608087
H         4.58564834416163    3.47876075209685   -1.23045189479132
H         5.58379863040614    4.51363102636141   -3.94375884146077
H         2.17172953870330    4.32187031812519   -4.20941568215977
H         1.73481238036042    3.32818030459479   -1.54654671966970
H        -0.34395398385923    3.48093461749276   -3.86197120234865
H         0.22731025644452    4.92782883396215   -2.98544856539359
H        -0.77851996895729    2.57453867819671   -1.74898169662846
H         1.78279810213902    1.71343551426782   -4.06750193625709
H         0.21137194788810    1.45033861891569   -3.17121528735776
H         1.23860665979278   -0.90129397446268   -0.70961858529863
H         0.51237827641614   -0.82487086904367   -2.34621875426542
H        -0.10136551535289    1.07964776092761   -0.16864858997343
H        -1.13149724766496   -0.05317565929539   -0.78258047439196
H         2.43554665805576    2.02483156601334   -0.56975405906568
