35
 energy: -49.714694540137 gnorm: 0.108414880373 xtb: 6.4.1 (79825abcba525fcdf90b791dcacef51065a7a4e7)
C         3.38569054018094   -1.48781958913607   -2.52655050243291
C         2.83381057793477   -0.16431429900183   -3.03571326705671
N         3.90957097725684    0.84466845411639   -3.26060298542556
C         3.91133007424750    1.61942890398893   -2.21438523385040
C         4.59490321744295    2.94956650211457   -2.23921818007409
C         3.81318822741885    3.90410722215646   -3.14976520243926
N         4.38134589506056    4.83293911817801   -3.85269691659559
N         2.46451279820231    3.76497697899319   -3.43212528722805
C         1.37627008561952    3.12172524586165   -2.67063858136286
C         0.06879090215301    3.84034181419372   -3.09339179194968
O        -1.07479857754753    3.09911263509294   -2.66768253199048
C         1.13586584416542    1.61560264818521   -2.91573466473353
C         1.90981869088128    0.60515680913149   -2.02133657958522
C         0.97458945999200   -0.12854958949358   -1.01073389000448
N         0.22755612808858    0.88708345505928   -0.25249071888771
N         3.00359965617604    1.22538626462707   -1.24769868068786
H         4.39352651277821   -1.25365562426117   -2.16362960384067
H         3.54837820778399   -2.10649601016943   -3.41532173038755
H         2.80422742033488   -1.99156487866139   -1.75163825379215
H         2.38070868475538   -0.45044273217334   -3.99464163977055
H         5.56537553366379    2.70544894535785   -2.67882852195463
H         4.65313286012837    3.30248057546558   -1.20769747468208
H         5.38222511382294    4.89543091677290   -3.62790115375640
H         2.15806947402082    3.80976354215365   -4.40680074882465
H         1.50952422966543    3.41020677887549   -1.61917215961249
H         0.13825219209061    4.02784407949103   -4.16979582009233
H         0.04154485055111    4.80143806645661   -2.56474163704354
H        -1.89073315168740    3.59984011060144   -2.85844423655471
H         1.54593159767684    1.38340811157201   -3.90770341810709
H         0.06584943931798    1.36777001907527   -2.90744229434651
H         1.46341483089768   -0.70313965490762   -0.22438830489148
H         0.33980305301701   -0.77594841975797   -1.62847306537558
H        -0.42807686634191    1.38754683877388   -0.84753552260986
H        -0.34177298305585    0.41913463453068    0.45453357493600
H         2.54201170926684    1.86363920624363   -0.60285509832163
