35
 energy: -49.720256300308 gnorm: 0.111809605472 xtb: 6.4.1 (79825abcba525fcdf90b791dcacef51065a7a4e7)
C         3.74475268199943   -1.46021264187375   -2.69358285261268
C         3.14959640629314   -0.11041246910964   -3.06682933805714
N         4.14101485784070    0.97557950353580   -2.81465302395524
C         3.68317586836905    1.68968176904595   -1.82709551629871
C         4.12167459292999    3.11179120322799   -1.67716705606112
C         3.68519925199933    3.85710547479876   -2.94417853434118
N         4.39806376742805    4.49636679713246   -3.81757073730296
N         2.33286525298104    3.81150846772350   -3.23934544226970
C         1.25074788856140    3.00339882660937   -2.64446076057277
C        -0.06770524541381    3.76977805765491   -2.92548750640658
O        -0.19361751763994    5.02435594176472   -2.25569172791072
C         1.17862144155598    1.53412233135394   -3.11594340445079
C         1.91960989992464    0.46006085597628   -2.26901971231198
C         0.87137000370589   -0.59495108562439   -1.79738481073493
N        -0.12398308686104    0.00722467255565   -0.89674139926996
N         2.63465298639463    1.09786253501010   -1.14586373513143
H         4.63871091457701   -1.61475921215396   -3.30940077763097
H         3.00608231250546   -2.26833509789241   -2.71470768366784
H         4.08250040486171   -1.42114971616542   -1.65591805601616
H         2.81441184587247   -0.10896392130329   -4.11294770371371
H         5.20132044588950    3.03479055825745   -1.52517079714030
H         3.58697501528956    3.67765319124694   -0.91174522639417
H         5.41640561425773    4.37712861307182   -3.74714562068697
H         2.07990979378684    4.13902067710616   -4.17457529607028
H         1.36537866609672    3.13929598679305   -1.56050890207298
H        -0.97118562570063    3.30108307757007   -2.52215661427737
H        -0.13822127430832    3.75829013220677   -4.02039154200326
H         0.57891349316579    5.58563605315111   -2.45824476659642
H         1.71788941139223    1.50895234448614   -4.07230460479293
H         0.09499850884189    1.35630051998089   -3.13972610471342
H         1.27955623239010   -1.47578301634325   -1.30244798042383
H         0.46595485366791   -0.94057441322066   -2.75648010562844
H        -0.53969851834443   -0.76391041869985   -0.38009075313664
H        -0.86572013823594    0.53754220987863   -1.35672459397811
H         1.94907517583811    1.48929296406192   -0.50319837524134
