35
 energy: -49.723492567040 gnorm: 0.118545170597 xtb: 6.4.1 (79825abcba525fcdf90b791dcacef51065a7a4e7)
C         3.26526360922789   -1.42964501796655   -2.99239124998798
C         2.94644221588393    0.05385412371193   -3.10670497828442
N         4.12850484404052    0.94107407764993   -2.90311056727154
C         3.83927022984950    1.69467099403449   -1.88170788114437
C         4.44592181698713    3.05975427448906   -1.80636580747757
C         3.79975178532629    3.73355440542388   -3.02282783391189
N         4.30861757500662    4.59714397787185   -3.84435900842582
N         2.56832136730803    3.30539680265972   -3.49002162532181
C         1.30633562258440    3.11506500571445   -2.74902718821599
C         0.26758531128899    4.09184227550616   -3.35856453320426
O        -1.00336432340488    3.98368143721027   -2.71713315756564
C         0.85137993393258    1.63894312741737   -2.76776356050287
C         1.88006817209038    0.66508223319250   -2.12484277798810
C         1.07186113413203   -0.41356420209906   -1.33895486504526
N         0.11527990400664    0.29168381729469   -0.47172965808755
N         2.77361567695032    1.26243062941136   -1.11276339212229
H         3.71260958905024   -1.66470926116560   -2.01930130065766
H         4.09337667698319   -1.61535793969933   -3.68440391849665
H         2.46663366004671   -2.15674593245985   -3.15320827958169
H         2.57397317552450    0.26780936432110   -4.11774621619144
H         5.53407412491639    3.13605272849887   -1.87543266541793
H         4.12978489417571    3.55529785959304   -0.88632885089382
H         5.30084742486730    4.79647804711187   -3.66563178978700
H         2.50883409255140    3.46689108398781   -4.49813196385847
H         1.36447870751913    3.38294540082193   -1.68534520621600
H         0.05880756730304    3.82327955615045   -4.39919583774406
H         0.75276450140678    5.07453184329786   -3.41187204688823
H        -0.84241315301370    4.24889519407427   -1.79159350704485
H         0.59241024368119    1.26972393328257   -3.76910370476074
H        -0.02381785691946    1.54804966211028   -2.11035039369663
H         1.72704341594757   -1.01741681070044   -0.71162595351203
H         0.50374246341937   -1.14519490952517   -1.92686504843414
H         0.74240749123945    0.62037065480580    0.25838847878483
H        -0.62595351070605   -0.25013284100923   -0.02451291242906
H         2.33109879569939    1.86253815203071   -0.41972425191912
