35
 energy: -49.712751878815 gnorm: 0.108647394201 xtb: 6.4.1 (79825abcba525fcdf90b791dcacef51065a7a4e7)
C         3.49907274572467   -1.36922695649410   -2.89972710091769
C         2.93474636627984    0.03279221104383   -3.07682149083917
N         3.96904767012387    1.10801379612982   -3.07798406300619
C         3.71352145771534    1.77995803101080   -1.99261512319002
C         4.14875972517805    3.21083271173402   -1.97471919162069
C         3.39610873640975    3.76631881872167   -3.18973932727349
N         3.75142032524719    4.86539238502581   -3.77747721090501
N         2.26866605965136    3.06823403895707   -3.58918965039494
C         1.11701836506931    2.91683362780660   -2.67886413995797
C         0.02556088487960    3.83573856600620   -3.28628996190035
O         0.47378355318533    5.18462070493954   -3.15190476487961
C         0.78856655761970    1.41690405174020   -2.50974222062607
C         1.88399560401282    0.44678332292368   -1.98167721313988
C         1.25453326609901   -0.70581497492408   -1.13930504178306
N         0.47570705140888   -0.18276865794211   -0.00601150312079
N         2.79706573446121    1.22251390795730   -1.11906377492036
H         3.82989244115448   -1.53912356343328   -1.86823732890353
H         4.31149028100416   -1.33475222333647   -3.63316511857635
H         2.71335255820623   -2.04553636685208   -3.24265134265921
H         2.56568609911220    0.13787507303965   -4.10612539438300
H         5.23648430328793    3.23674835634534   -2.07888625858138
H         3.95659225318854    3.83225701546131   -1.09786258410417
H         4.58887485005451    5.23324458741955   -3.30891317918281
H         2.03094730599306    3.26986878275878   -4.56322190912343
H         1.28837536165763    3.32432540110048   -1.67330601865444
H        -0.92124189234849    3.83600686189071   -2.73657001030992
H        -0.10165128035335    3.64474881247508   -4.35925748709570
H         1.35112844385397    5.26791679134563   -3.57166060668933
H         0.31913290261802    1.02127004045258   -3.42033322645951
H         0.01084085039920    1.23158452907643   -1.75659928834244
H         2.06547680949552   -1.36974015724863   -0.84094740545153
H         0.58373806994705   -1.30900278513822   -1.76370793412042
H         0.05780313054935    0.69613893527262   -0.30143373225961
H        -0.26753994020753   -0.74195060070771    0.41576396421719
H         2.32595782122399    1.75325257455760   -0.38925058882571
