35
 energy: -49.716250282277 gnorm: 0.116091441998 xtb: 6.4.1 (79825abcba525fcdf90b791dcacef51065a7a4e7)
C         3.28566972978824   -1.66467061958522   -2.60526320990038
C         3.03478261263702   -0.29571357954749   -3.22048411015040
N         4.20077722193742    0.63428852418013   -3.18260681842937
C         3.88801955601398    1.45807652121522   -2.22428306839504
C         4.52378988130698    2.81027184969147   -2.15706088424328
C         3.58967402492577    3.99046738093151   -2.45012786886097
N         4.02847629658934    5.20697540026954   -2.53501379743831
N         2.29506432010928    3.87963964252263   -2.92941146875417
C         1.18607276862366    2.93420739471721   -2.69659695898063
C        -0.17402159623203    3.59762958939425   -3.03519134074633
O        -0.34184313438599    4.92236350178581   -2.52985783594738
C         1.41385814775738    1.61922066488725   -3.47453995715209
C         1.95673543554656    0.56651988353723   -2.46604747903021
C         0.94180388612517   -0.36582837356280   -1.73465339705302
N         0.16941675887313    0.38458976002308   -0.73225988854944
N         2.81376009156717    1.14346701900642   -1.41143961891462
H         3.44176215009413   -1.61988235252821   -1.52087081947253
H         4.20594297646263   -2.12325692548342   -2.98200959586473
H         2.46085467883541   -2.36523170366707   -2.75100947088647
H         2.86680329504837   -0.44953732059050   -4.29511690703985
H         5.26813606280610    3.00257607063411   -2.93400039138551
H         4.90288502984946    2.91260214036221   -1.13834140088205
H         5.03027497452075    5.36314848460143   -2.36706457797875
H         1.94954778538321    4.75035221077780   -3.33975711717605
H         1.16324385827657    2.68282512973860   -1.62755734270970
H        -0.88569607213594    2.85510078640440   -2.65996072131394
H        -0.31055903620857    3.70481930352365   -4.11860595466109
H        -0.49344919945679    4.84377623261217   -1.56876111695798
H         2.13158977932981    1.82078495651150   -4.28095385347600
H         0.55499123111354    1.22500713478151   -4.03433295265859
H         1.42932762455722   -1.16418174127726   -1.17572953666537
H         0.39319402293954   -0.89848741755096   -2.52140766951706
H        -0.41659518179047   -0.25313301257971   -0.19906554071537
H        -0.51447361149988    0.97655286922931   -1.20646314445142
H         2.51410019445999    1.88646204124803   -0.78341426791362
