35
 energy: -49.719379295019 gnorm: 0.103623056242 xtb: 6.4.1 (79825abcba525fcdf90b791dcacef51065a7a4e7)
C         3.65427366227736   -1.39205556705745   -2.61816812157367
C         3.03228996338318   -0.07206221928301   -3.04972144523947
N         4.07227595525512    0.97912604455359   -2.85144293685936
C         3.66247559119216    1.74337734652685   -1.88045786125529
C         4.15124208217395    3.13897006599284   -1.65555079519274
C         3.69872464331146    3.87598272391920   -2.92179030003794
N         4.31130241310692    4.86324769411657   -3.49598638978156
N         2.52662006362637    3.42662771694953   -3.50682086261729
C         1.29342888424176    2.97473872760323   -2.83381060808191
C         0.09942486819164    3.91578033674165   -3.13946874428271
O         0.07502771716444    4.99110051813873   -2.20056660144928
C         0.97547178484771    1.47580172550547   -3.02967447089527
C         1.80946890794716    0.45049680468142   -2.20921711150627
C         0.97611038946135   -0.69811515603528   -1.56075687011398
N        -0.43096168212377   -0.28674276029467   -1.43656786799050
N         2.58580855576637    1.20069716025801   -1.20221506958458
H         4.17569989411056   -1.96363177373876   -3.39514495547240
H         2.98554384629085   -2.13431518447417   -2.16984550561353
H         4.34794234739006   -1.23706887200536   -1.78922268088596
H         2.81154260593922   -0.09510337062022   -4.12557186356099
H         5.24081073650851    3.07030545087729   -1.70839452001751
H         3.96943998083685    3.73144019405868   -0.75671759701262
H         5.17998639415691    5.10319194631146   -3.00201021411986
H         2.33901740091504    3.79429546962642   -4.44251913168833
H         1.30679353337740    3.16053362772552   -1.75128507812599
H        -0.74898276381128    3.23998665115806   -2.99069045451137
H        -0.08298046987037    4.27655110127037   -4.15951386961993
H         0.91741582035640    5.48412926893099   -2.21368885169056
H         1.10439690796896    1.25986617603626   -4.09870223341390
H        -0.07091074008406    1.43719540859275   -2.69798481058121
H         1.48996893670477   -1.00186507691374   -0.64909424932790
H         0.98560591542606   -1.54106615081464   -2.26291366334543
H        -0.57510895138416    0.45305111599738   -0.75368931231100
H        -1.05435884456453   -1.03399119139700   -1.12674397704609
H         2.03180568769386    1.70285158493749   -0.51143635500596
