35
 energy: -49.719310755346 gnorm: 0.117146036965 xtb: 6.4.1 (79825abcba525fcdf90b791dcacef51065a7a4e7)
C         3.44609866680909   -1.39425711439591   -2.12342368044240
C         2.74898869900031   -0.24806761133148   -2.84159621691928
N         3.76420516204009    0.77251556626747   -3.23354971261313
C         3.75321159345844    1.61517790755544   -2.24126560696769
C         4.31177442152467    2.99327456249316   -2.40254827261816
C         3.58671940196387    3.84667383467151   -3.45008207109883
N         4.08258311461750    4.35516994372053   -4.53414649612672
N         2.21673592111781    3.99364528479785   -3.31024467034674
C         1.26786805042623    3.23480553219340   -2.47255798562243
C        -0.07195743245396    4.01526175563094   -2.49224570707353
O         0.01249494620237    5.38951371380419   -2.11442920229343
C         1.08518008201698    1.73874816456589   -2.81124518843663
C         1.82470908709118    0.66852471634554   -1.95820922029344
C         0.89103996220301   -0.12986284087631   -0.99636937464168
N         0.26340638813131   -1.28223942497644   -1.66165600439170
N         2.91381746037575    1.30063549685602   -1.18760173116003
H         3.93743676184706   -0.95750231674555   -1.24586467228344
H         4.18250430149234   -1.86218641125244   -2.78515701286897
H         2.87983638448331   -2.25080833019925   -1.75192036359514
H         2.25315594246250   -0.45982347485404   -3.79868752527313
H         5.39105422553272    2.83502301260011   -2.47167623682158
H         4.19414372198833    3.53859481737767   -1.46405861350793
H         5.07593769851866    4.18379753749627   -4.73433572368989
H         1.87271551082368    4.42160561707335   -4.17303404891122
H         1.71063103617648    3.34712833467707   -1.47360632172068
H        -0.78273368560326    3.50313033702648   -1.83562852244586
H        -0.41752949187273    3.93243803353555   -3.53033988355030
H         0.79659116431316    5.74876518364877   -2.57159302841648
H         1.49531923614566    1.74947962653299   -3.82994089580589
H         0.01009695056358    1.51713938918420   -2.85011285727994
H         0.04950516835565    0.48588973437831   -0.67996562468120
H         1.48368865271993   -0.51740945188045   -0.15836228884178
H         0.92541326750722   -1.87800824579272   -2.15278016907627
H        -0.26338475552647   -1.82067260066641   -0.97203589490219
H         2.82466943907751    2.07620581406222   -0.53430485355711
