35
 energy: -49.715167820008 gnorm: 0.113539945753 xtb: 6.4.1 (79825abcba525fcdf90b791dcacef51065a7a4e7)
C         3.74634112943646   -1.44273946019133   -2.83554139703970
C         2.97878606358488   -0.17222840071465   -3.17042237384651
N         4.04286623388583    0.86676464277964   -3.05164175895435
C         3.72648498206097    1.53029398201286   -1.97718369725877
C         4.39081834370760    2.86497992021705   -1.85706066478105
C         3.52804990771459    3.91087642128256   -2.57333806970217
N         3.96109195905422    5.11013945197343   -2.80547503340058
N         2.42203559954907    3.48505030927203   -3.28986742875936
C         1.18990926133117    2.90075724246214   -2.72562166084867
C        -0.00213139434770    3.70037062376934   -3.31238340776602
O        -0.01474555460868    5.02404747058190   -2.77743813404629
C         1.03337170666675    1.42439008164105   -3.15236226624756
C         1.83685941947858    0.42698314919058   -2.26944744891931
C         0.82102598794304   -0.54715421327923   -1.59607136004142
N         0.17779868463283    0.28315213002530   -0.56585197330430
N         2.60344986020657    1.17364247406557   -1.25239491542735
H         4.69901657337003   -1.57824008722463   -3.36120930044070
H         3.22628254633626   -2.39551590409701   -2.98010343236992
H         3.94020749942642   -1.39306849569966   -1.76209075196459
H         2.53102597359651   -0.35658474703041   -4.15644369325590
H         5.29069391621862    2.71942323056221   -2.46013972035389
H         4.49899172712472    3.34007887246868   -0.88004812463110
H         4.95580705897461    5.20949141933311   -2.56700360726746
H         2.12860772638654    4.19137246349604   -3.96877442403081
H         1.15460418957374    2.94803984427624   -1.62877263174463
H        -1.02996785765313    3.39649437814669   -3.08913686288376
H         0.09192379439119    3.65089535258252   -4.40445719124199
H         0.92495305836313    5.28433250306083   -2.73177107727326
H         1.28256207930090    1.29414354723582   -4.21396963296299
H        -0.03964031644999    1.20465872934716   -3.06997174286299
H         1.31262098593187   -1.37931353533237   -1.09279353574497
H         0.12806370902102   -0.99305252380406   -2.32040461824345
H         0.01894804848900   -0.18268088532537    0.32418320193026
H        -0.69843163272779    0.66494796241385   -0.92564004667957
H         2.10897460366956    1.82398974975597   -0.64510906527530
