35
 energy: -49.720081312246 gnorm: 0.117623919672 xtb: 6.4.1 (79825abcba525fcdf90b791dcacef51065a7a4e7)
C         3.57116532485963   -1.30490461642195   -2.73621146268923
C         2.92416223278716    0.00260303483906   -3.16898758389984
N         3.93187456744140    1.10111977984254   -3.10849963189463
C         3.73000716135099    1.68590059423226   -1.96302622412698
C         4.26531112074016    3.05162095741955   -1.67077217416052
C         3.61931774612972    3.92950113773267   -2.74935508754531
N         4.18659488327927    4.99814909969807   -3.21393334204677
N         2.49920378028940    3.36705823963408   -3.33843275744362
C         1.27257398279787    2.97117676942359   -2.61970878299890
C         0.02804194680809    3.71523422996466   -3.16939079646363
O         0.20732823835446    5.11305903991718   -2.94050615254679
C         0.95860295819563    1.47689550783625   -2.85383953122295
C         1.85787486802726    0.45296657084048   -2.10361876289761
C         0.93577543672631   -0.71732476982883   -1.64053420257945
N        -0.24413774577579   -0.19264755622796   -0.93553728691946
N         2.78646801464804    1.08754886928283   -1.14728359943272
H         4.48993253795811   -1.54669749013054   -3.28364245474125
H         3.07368482406809   -2.25970310772362   -2.93624911795647
H         3.73837541363873   -1.26662653116163   -1.65782227571600
H         2.59503951678486   -0.13587731700851   -4.20784071417699
H         5.34775362964945    3.20239999138119   -1.65492915010719
H         3.88560450322386    3.43821410339703   -0.72296279960325
H         5.10551263828777    5.20640813804256   -2.80354829337877
H         2.32169947177666    3.82381727617232   -4.23607911842001
H         1.45406220527255    3.31900327755713   -1.59372700358391
H        -0.93391308161173    3.46817658368834   -2.70870367267775
H        -0.13022753968626    3.56627354312119   -4.24488175531008
H         1.03837076361843    5.43777592616674   -3.33647903645014
H         0.93804608926841    1.20156803675830   -3.91677997630128
H        -0.08846276876746    1.37090451167225   -2.53944466866116
H         1.39022612927070   -1.54905507916799   -1.10281439365655
H         0.58621523562852   -1.00942718647845   -2.63861463447758
H        -0.00216163182627   -0.15435526872421    0.05156847990355
H        -1.07979747951868   -0.77964717258636   -0.92557044709707
H         2.33271672786711    1.70927211786746   -0.48108285204547
