35
 energy: -49.723192874189 gnorm: 0.115431137899 xtb: 6.4.1 (79825abcba525fcdf90b791dcacef51065a7a4e7)
C         3.46383932334301   -1.56173819838149   -2.56649314178051
C         2.82926169087823   -0.27677536538263   -3.07802630909784
N         3.88996243480669    0.75262704417396   -3.28082327012947
C         3.74026588588055    1.61060680329071   -2.31320243291886
C         4.45691548144893    2.91215742833320   -2.14134714319562
C         3.57149294004172    3.99144731081799   -2.77576218041059
N         3.86048632684750    5.23470296121183   -3.00035737377220
N         2.38161792236056    3.55835263216213   -3.33668665651191
C         1.15887637244805    2.98825587581697   -2.73852301982948
C         0.01695930084172    3.65901658669149   -3.54520591357205
O        -0.06210437113498    5.07437951058226   -3.37508043263747
C         0.97005025924370    1.46143207322510   -2.87789759020721
C         1.85720503979702    0.45981824526545   -2.08437520316713
C         1.02477297131729   -0.49249194769469   -1.17088810244179
N         0.29557883063247    0.28006938363400   -0.15308317858944
N         2.91261701762741    1.14129881546732   -1.30897419824090
H         3.74485698602401   -1.51498778620590   -1.50766305642395
H         4.30957570631402   -1.73985005083398   -3.23891281729392
H         2.79051641229802   -2.39332055186267   -2.78433416802291
H         2.32921819378842   -0.45254073895026   -4.04019960228029
H         5.37496713336774    2.94767729492033   -2.73345071245305
H         4.58620005697842    3.18316504160138   -1.09167368545919
H         4.87602153069890    5.38910916752829   -2.96803808015226
H         2.07970145466353    4.28545698928360   -3.98942803391989
H         1.10609332809534    3.25064504596549   -1.67319408296239
H        -0.90178808597057    3.11555930727320   -3.30192620698835
H        -0.00564525269437    3.50685671760787   -4.63160166586297
H         0.22698171736994    5.16987769533454   -2.44762337593841
H         1.01958171122814    1.23552347584153   -3.95148137443354
H        -0.05636208295805    1.25264924628895   -2.54727348709162
H         1.73023065827635   -1.24099398230369   -0.81100268643877
H         0.34154706256821   -1.00130572665761   -1.86225746921835
H        -0.24028300671366   -0.34803530991646    0.44083021815976
H         1.01886389193080    0.73860901812952    0.40332962636317
H         2.50001234182921    1.84039946786094   -0.69475180723461
