35
 energy: -49.720095520429 gnorm: 0.110865965386 xtb: 6.4.1 (79825abcba525fcdf90b791dcacef51065a7a4e7)
C         3.81456692206165   -1.42852225025612   -2.54600892170625
C         3.11001683712467   -0.16601087084820   -3.02051774789855
N         4.08677601243066    0.96127405518976   -2.98807998503735
C         3.78214381145952    1.65577595195990   -1.92992368217425
C         4.27423088225233    3.06449780999175   -1.82741525294278
C         3.62747949123443    3.85709698058873   -2.96970304000744
N         4.26652253441015    4.82046538887816   -3.55552734157459
N         2.30522969710383    3.68764628531889   -3.34513850617400
C         1.22337849262438    2.96787082764071   -2.64554703244940
C        -0.05287613644595    3.83041002172100   -2.82396245658860
O        -0.09165127772035    5.07198342175008   -2.12008894398270
C         1.14116774590247    1.48737577433760   -3.07872980380963
C         1.88010863628933    0.41382916644827   -2.22936785328417
C         0.86514319485900   -0.58612759613747   -1.59357845048495
N        -0.48451881687824   -0.00234976912673   -1.54755811865210
N         2.65707520289048    1.21058656817739   -1.25928665414891
H         4.21417158845245   -1.40999944382847   -1.52510212342016
H         4.61069947664617   -1.75235920621871   -3.22456964748207
H         3.01125155672952   -2.16796235203921   -2.56214672462000
H         2.76403520863968   -0.34581861726132   -4.04749404119033
H         5.35307864256888    3.05518346536391   -2.00253777740206
H         3.99023795939399    3.52946613395328   -0.88130401401337
H         5.26962830055194    4.95214381799685   -3.37486972519280
H         2.13994764939581    4.44125214393072   -4.01645486356129
H         1.43337903811737    2.94453868536638   -1.56762529705872
H        -0.92633222560345    3.25712057304315   -2.49679085956183
H        -0.16382421704227    3.91703978910036   -3.91212840620133
H         0.73148771909291    5.55730139354230   -2.31952794804770
H         1.54894251030076    1.41544206337192   -4.09589030880342
H         0.08974862448055    1.17109321354277   -3.10886361392400
H         1.33831970188235   -0.86035390433924   -0.65105668193393
H         0.84083295330909   -1.49814979638743   -2.20292664494404
H        -0.68617257086800    0.40483076673881   -0.63764806174898
H        -1.09308054233081   -0.78769156867298   -1.78396025697014
H         2.53639049764585    1.39015971477022   -0.26457958393793
