35
 energy: -49.721562505030 gnorm: 0.114799488272 xtb: 6.4.1 (79825abcba525fcdf90b791dcacef51065a7a4e7)
C         3.46820624160991   -1.27466947530060   -2.70296914523563
C         2.87373848412373    0.08623570914940   -3.03467624629740
N         3.98703746221979    1.07929884396980   -3.01815354627254
C         3.77825253931281    1.82586385070312   -1.97226732494398
C         4.31135486918983    3.22297698209091   -1.94014593885333
C         3.79718967956789    3.63514065371103   -3.32473161081057
N         4.56511369535106    4.24239525018618   -4.17395442043837
N         2.49789592564076    3.35288653356242   -3.71225993765385
C         1.33541861750465    3.08857186528353   -2.84237992792908
C         0.18598790768125    3.96649795308282   -3.40156385890827
O        -0.77462671439328    3.94712147089834   -2.34549091271690
C         0.80531791135899    1.64998491053910   -2.65334992801858
C         1.82341689673871    0.66215614162746   -2.01489831953679
C         1.07783849574280   -0.45208927908748   -1.21685913560888
N         0.13219578739056    0.09658134464659   -0.23236820985571
N         2.73511260359868    1.43775145746214   -1.15071096370873
H         3.97963833196095   -1.34755890988665   -1.73580730535319
H         4.30073931995598   -1.35875866644465   -3.40933998655580
H         2.67358708901832   -2.00431629480825   -2.87191761871918
H         2.54513832962408    0.21810783583881   -4.07455417020898
H         5.40309095301716    3.17034521005412   -1.94320710760981
H         3.87699220478361    3.77759705872674   -1.10605981941157
H         5.57047559310053    4.23198764479800   -3.96103025197381
H         2.42632318833818    3.28523313655048   -4.73020195434757
H         1.58207573433613    3.52851667496072   -1.86658859786000
H        -0.39978283127091    3.55866775791995   -4.23172936423157
H         0.60098664862015    4.95565230302652   -3.63236474427518
H        -0.64177106887911    4.80550901934708   -1.90008384370269
H         0.45316573821598    1.28852918277625   -3.62875179751928
H         0.01591814169918    1.77117101703111   -1.89930297507379
H         1.80056589610058   -1.15602134186818   -0.80504836643736
H         0.45505139857142   -0.97838817282088   -1.95090710064097
H        -0.78026187304613   -0.32877773894356   -0.37689227664637
H         0.37210242042330   -0.11296228941129    0.73795717675155
H         2.32321315037684    2.10230270877552   -0.49881836561534
