35
 energy: -49.721015328359 gnorm: 0.115300415106 xtb: 6.4.1 (79825abcba525fcdf90b791dcacef51065a7a4e7)
C         3.74160056678246   -1.26548155016128   -2.45151447622369
C         3.02633333803219   -0.15010723112979   -3.19972393289465
N         3.84935914303034    1.09428430718512   -3.20022359175549
C         3.62125742849463    1.60779543040977   -2.02587084928254
C         4.17963616602610    2.96060944511233   -1.71722482450377
C         3.64924305401782    3.91809819768440   -2.79110593073779
N         4.29927572490486    5.00446029213912   -3.06844999353736
N         2.46797817350455    3.56991004862427   -3.42465793306878
C         1.35823531226160    2.90823832865726   -2.71151818297142
C         0.03799461108724    3.68073783598649   -2.96615683742774
O         0.08903300727693    5.09733282930763   -2.79557060582849
C         1.04258451906651    1.44116894171899   -3.07804723583969
C         1.85171944364197    0.37018176898434   -2.29176555762217
C         0.81439564298161   -0.64198831289053   -1.71403928426548
N        -0.29790820707427    0.04243052344352   -1.03665240579516
N         2.64384796483727    1.03042390007122   -1.23527622936969
H         4.71153640816552   -1.40379271232657   -2.94382756165484
H         3.27225672743583   -2.25453678885101   -2.47657799846439
H         3.82444127125174   -0.82303867644657   -1.45666303168095
H         2.70905167943803   -0.42905186898380   -4.21374398520886
H         5.26731404755100    2.89139180929370   -1.79988610119447
H         3.95051769012644    3.28887274441175   -0.70148768799069
H         5.22497654130960    5.11163660277996   -2.63510394702974
H         2.18593798615590    4.19416537564398   -4.18404203287374
H         1.56052632181808    3.11301558482669   -1.65146888431289
H        -0.67492583797471    3.32495829978659   -2.21529536290722
H        -0.42609286371930    3.39669478615632   -3.91897460053691
H         0.64473834045217    5.40326482733454   -3.53750352496367
H         1.38263196891811    1.29038388644074   -4.11134381690237
H        -0.02059073217577    1.21095396294198   -2.92611196497449
H         1.35238891717890   -1.42627672485218   -1.18215744713948
H         0.43360174732293   -1.19001317961896   -2.58486961861132
H        -0.00453385078185    0.61235139205849   -0.24702070115164
H        -0.80873749284226   -0.75566846345179   -0.65575013890495
H         2.16127818460826    1.52281213417390   -0.48632114485522
