35
 energy: -49.720154611624 gnorm: 0.112910572174 xtb: 6.4.1 (79825abcba525fcdf90b791dcacef51065a7a4e7)
C         3.56407676445681   -1.44071648540470   -2.27933866872326
C         2.93433696903258   -0.23876130854050   -2.96797207828394
N         3.91356447121644    0.85269597783275   -3.24313835531773
C         3.77711807568325    1.67826166282670   -2.24581590655561
C         4.42263859568358    3.02750406214872   -2.24757362543742
C         3.76693169684817    3.92060575760008   -3.30763965539390
N         4.04133986905697    5.06393325458242   -3.85275173679126
N         2.58840448289626    3.32917000576517   -3.73106287305852
C         1.43645338908629    3.03414203114614   -2.85706392447153
C         0.26349684302095    3.96537953338948   -3.25906079467176
O        -0.76139302353507    3.89554719579314   -2.26751141964903
C         1.02044234159973    1.54688421950515   -2.82141939745494
C         1.89367302147774    0.51094490562275   -2.05705719226301
C         0.85708172988727   -0.39767437506657   -1.32617689025594
N        -0.08550758012985    0.41925765589443   -0.54601702885187
N         2.87576320887563    1.28543011661616   -1.27269221253165
H         4.01688983303880   -1.08676831781162   -1.34555138124452
H         4.32959907081573   -1.96113412282193   -2.86438837274279
H         2.78934873042211   -2.15468198078767   -1.99228917918224
H         2.51483295950497   -0.53823599470006   -3.93804717934673
H         5.47970675070902    2.94642999990968   -2.51347029076282
H         4.25692377563037    3.44803886239009   -1.25376123315744
H         4.98931143209016    5.35200508525126   -3.57969111876642
H         2.26634226925003    3.94055811999776   -4.48497674047771
H         1.70823414793113    3.29600484937588   -1.82550056093993
H        -0.15258757649785    3.86661459533195   -4.26690345524434
H         0.73079883507529    4.95672492838841   -3.20631147822871
H        -0.44656459266399    3.87102302107427   -1.34385083091701
H         0.81841326877106    1.20074332147300   -3.84388745507186
H         0.00675657853934    1.55469225295136   -2.39856590261353
H         1.32542983665937   -1.18781168082898   -0.73985237836745
H         0.32952334542858   -0.83333675643654   -2.18382550536502
H        -0.86849808108805   -0.01904072872899   -0.06725097658443
H         0.42256631842592    0.95665533655278    0.15829804894658
H         2.59166517227921    1.82235061703099   -0.45583351451224
