35
 energy: -49.731136623371 gnorm: 0.112894692706 xtb: 6.4.1 (79825abcba525fcdf90b791dcacef51065a7a4e7)
C         3.73806776746781   -1.42152997454463   -2.58386397029305
C         3.08244797531495   -0.17806471701505   -3.16647986347157
N         4.08578879632586    0.92440388397763   -3.10522475423440
C         3.83050860794003    1.56666319729140   -2.00197345788769
C         4.28107091393752    2.97083821277803   -1.75209134203409
C         3.57586696279002    3.75925194575682   -2.86223248189384
N         4.20592236894687    4.51696725210151   -3.70398215421174
N         2.20649351958854    3.90662629611441   -3.00751502397774
C         1.15811148615955    2.97693591116038   -2.54439746334948
C        -0.16806483842392    3.66784621943854   -2.95492290439429
O        -0.28387632988923    4.95898408321893   -2.35659467087861
C         1.25950769792441    1.56210717933944   -3.15615720534494
C         1.93616171331658    0.45666409111831   -2.29587435271064
C         0.87715357665710   -0.52292068508126   -1.70155796614650
N        -0.06708564836440    0.19709393275188   -0.83294228486019
N         2.76009327365632    1.10552083336500   -1.25679849312074
H         4.69906154767749   -1.66691668444904   -3.05136155731648
H         3.10646996207922   -2.31588804497948   -2.56515755236445
H         3.97903066987492   -1.22129397601350   -1.53782855425767
H         2.75678531381261   -0.23766354583089   -4.21390825104599
H         5.35865578011978    3.14381439591652   -1.81173385018987
H         3.89166608729966    3.29334937858535   -0.78445275777083
H         5.21490542877425    4.65749378539601   -3.56832434841823
H         1.99211177692241    4.33363151787553   -3.91173435963715
H         1.12863377983857    3.04459621342849   -1.44844444435007
H        -1.00972495017659    3.05734473388962   -2.61210547967151
H        -0.23511527904860    3.72356682242310   -4.04868649027292
H         0.57236354932397    5.36197448599320   -2.59600909514223
H         1.85760132218356    1.63757825579872   -4.07412144249402
H         0.26361534169748    1.32219071598865   -3.55246940660092
H         1.41332380304493   -1.12585816414979   -0.96914329822213
H         0.58904734078638   -1.23411566004322   -2.48569902502574
H        -0.81373690967661   -0.41073016388256   -0.50513395962229
H        -0.46639147881467    0.90400011323525   -1.45248533573855
H         2.39474384657687    1.65707610078957   -0.48313185976058
