35
 energy: -49.721213556396 gnorm: 0.118932719559 xtb: 6.4.1 (79825abcba525fcdf90b791dcacef51065a7a4e7)
C         3.78635825957641   -1.26605246435171   -2.92848669337288
C         2.94597320018737   -0.01966757764565   -3.16462667458020
N         3.90882224195295    1.11568129698300   -3.06569911874893
C         3.67259086457838    1.65152358661325   -1.90298840305211
C         4.19215370913105    3.01741870021549   -1.58433507014385
C         3.57677861509778    3.83939624008582   -2.72318915583148
N         4.15999860375508    4.86586101854065   -3.25785664022950
N         2.41044474786786    3.35759819734651   -3.29375537553803
C         1.13431999971536    2.94028866776666   -2.68116631203241
C         0.06831871941518    3.79897491698392   -3.40981645281660
O         0.25455183696087    5.11047637040160   -2.87715602797375
C         0.84180236509459    1.43237214682757   -2.84515631977170
C         1.81643263880069    0.42832172590157   -2.16550180948428
C         0.87203449608350   -0.67845284213366   -1.60206702853617
N        -0.14240828092920   -0.07144371633090   -0.72631150062170
N         2.68904702072183    1.04188428429142   -1.14489314137851
H         4.56007429794828   -1.31570319754723   -3.70384207951777
H         3.24734992468098   -2.21436361914872   -3.02501669698432
H         4.25505124412387   -1.24968917008503   -1.94237980763482
H         2.62645538721691    0.02350034604256   -4.21475014677133
H         5.27251208245704    3.16136661433022   -1.66662678217013
H         3.77306403857407    3.23857014733669   -0.60075492940696
H         4.98396016342745    5.14434696476342   -2.71038016043068
H         2.43524425949108    3.66900571891167   -4.26757052198704
H         1.13033088894825    3.14771367514697   -1.60250101077820
H        -0.99156010176720    3.54728359362405   -3.30056467773455
H         0.26339105375338    3.86493031745125   -4.48755296859898
H         1.19201522708263    5.37195008266615   -2.95239665128715
H         0.78667480734091    1.26160022009717   -3.92860825872510
H        -0.13788826420763    1.15331340071694   -2.43435545061974
H         1.58525589353099   -1.21467616737751   -0.97658869069713
H         0.52954920083183   -1.29414398255301   -2.44308364302506
H         0.22947596959875    0.46939888000063    0.05059771298718
H        -0.83635365950064   -0.76607848415587   -0.44538903006822
H         2.20765622638263    1.59424139376337   -0.43819800918171
