35
 energy: -49.723710025450 gnorm: 0.109222713238 xtb: 6.4.1 (79825abcba525fcdf90b791dcacef51065a7a4e7)
C         3.51296261621801   -1.40704720058219   -2.98903294131149
C         3.01029468736680    0.01343696550469   -3.20124538064817
N         4.14847541145056    0.92092115939093   -2.87429115668012
C         3.78192907686359    1.56677970220941   -1.80502087317847
C         4.23174129691674    2.98331150822196   -1.63690920420866
C         3.53796057006856    3.83230041319718   -2.70892054753926
N         3.94295051622976    5.01629008476921   -3.04625776116025
N         2.43315180218217    3.26410068002463   -3.32093074636288
C         1.11731236888045    2.90377604390699   -2.75822325548449
C         0.07747703299378    3.87819269929766   -3.36968581964810
O         0.16597940062295    5.22485827029554   -2.90374041910503
C         0.89060196837254    1.40665420681829   -3.06400117475482
C         1.81450123520323    0.43806074406476   -2.27141773150016
C         1.03727160603237   -0.68523194655023   -1.51747863826577
N         0.33128757121939   -0.06305637886366   -0.38655597356822
N         2.54408697503012    1.24814958325408   -1.27591904354649
H         4.48184470082781   -1.54793478912045   -3.48268856146460
H         2.77789543395854   -2.07648804043422   -3.44801799416497
H         3.57677477435030   -1.63610957007796   -1.92329089679857
H         2.80347350518673    0.24345021621742   -4.25530103209551
H         5.30409984474602    3.16027446933489   -1.75266060430345
H         3.92973458483858    3.27847564648299   -0.63011028011920
H         4.80998374850658    5.33598719446028   -2.59654152653052
H         2.35369659841973    3.76085585776614   -4.21133895128665
H         1.09646016674961    3.00488368051146   -1.66465006896480
H        -0.94699314872966    3.54133260449251   -3.18096987211532
H         0.18187248175605    3.84095711519188   -4.46130591230168
H         1.09784796310573    5.50824111909535   -2.96841191201820
H         1.08233901831505    1.23201425544009   -4.13115064740673
H        -0.19482980305376    1.29004055691467   -2.94290621361007
H         1.65946368520318   -1.55335745524770   -1.30142664584137
H         0.22921874479569   -1.09654542241914   -2.13517799323763
H        -0.11421871366697   -0.76788623251865    0.19579749738083
H        -0.40722535740307    0.49924700285449   -0.81247691396254
H         2.11915098202142    1.49084900086398   -0.38329378265686
