35
 energy: -49.720525659961 gnorm: 0.119294421394 xtb: 6.4.1 (79825abcba525fcdf90b791dcacef51065a7a4e7)
C         3.72684558661538   -1.38594137923901   -2.83900692391843
C         3.05659871609793   -0.05851388208478   -3.16179139874412
N         3.99438932260163    1.08776903091021   -2.98160741583137
C         3.60269983585905    1.73785200199664   -1.92387403211055
C         4.19405870638062    3.08365100093662   -1.64769528813676
C         3.60722809640500    3.88943142656324   -2.81288624003315
N         4.30500559206811    4.74025116846803   -3.49761768641424
N         2.35915754150606    3.54577595108698   -3.30505558591173
C         1.21728907342355    2.93028233422207   -2.60134328129082
C         0.00299213275317    3.79455003555830   -3.02931071977022
O         0.05643901678189    5.17599980290221   -2.67267935520935
C         0.97545324679682    1.46065276911070   -3.01119195528898
C         1.87228158764977    0.43968192086696   -2.25404655382359
C         0.94686813075263   -0.64823746033963   -1.62608325400669
N        -0.29906107781349   -0.20161712126399   -0.98367167243984
N         2.60391393912924    1.13759780446206   -1.17832146182706
H         4.69858107065555   -1.37249975267290   -3.34677375548847
H         3.06766253655003   -2.24902437441108   -2.97939042879263
H         3.96753658718763   -1.32013238176656   -1.77595250918135
H         2.58739508603428   -0.11489887238272   -4.15344815027798
H         5.26540477288369    3.05366023947670   -1.86213715461933
H         4.00480906938007    3.51565502570761   -0.66304758585810
H         5.29014868837286    4.80227470703917   -3.21153426011388
H         2.26761650932315    3.54868379121289   -4.32364155760203
H         1.36088567498354    3.05070404759209   -1.51901314752400
H        -0.89228273634642    3.43371659877263   -2.51267764196427
H        -0.18215383074688    3.71891112395197   -4.10816152451470
H         0.99831860793849    5.36120308336979   -2.49539471949894
H         1.22616188184702    1.37979942252108   -4.07734303944250
H        -0.07988113501499    1.22710583152930   -2.81587157239522
H         1.52803952810672   -1.33351503341750   -1.00957874623749
H         0.67462220050571   -1.37771232993360   -2.39901874656092
H        -0.16766136249922    0.77701325805333   -0.73992337479500
H        -0.60381510682558   -0.77066645478981   -0.19227864821253
H         2.22469370662842    1.70139587686115   -0.42031273272065
