35
 energy: -49.717928336701 gnorm: 0.123411137254 xtb: 6.4.1 (79825abcba525fcdf90b791dcacef51065a7a4e7)
C         3.64578509632177   -1.50809724596229   -2.69242056498613
C         3.09405604059510   -0.18633007112249   -3.20624061392706
N         4.12626524871767    0.89000289520685   -3.16226892044394
C         3.79736038543790    1.58845645437190   -2.11402628064409
C         4.29679246166894    2.96699091816425   -1.81845015212852
C         3.62880050608129    3.93885374239623   -2.79854788683444
N         4.14561397686876    4.98573456775559   -3.36121046634019
N         2.27575825333493    3.81871281145599   -3.06846020478833
C         1.23826629732343    2.94823588941193   -2.48212637837254
C        -0.17022511109008    3.57945793446007   -2.63160052096229
O        -0.18633847679819    4.96368445648911   -2.28216775817989
C         1.30394902413266    1.57650115428263   -3.18944608448632
C         1.93273824551301    0.43212453198151   -2.34388237255397
C         0.90594059541318   -0.52434844517463   -1.66186872543547
N        -0.22009921149739    0.29143210366445   -1.18120415104381
N         2.83431992046840    0.99382813176262   -1.31860361853167
H         4.48839389811609   -1.31769261925877   -2.01711754423319
H         4.07311334950943   -2.15249580256242   -3.46784505919813
H         2.94011653914423   -2.11665699737431   -2.12318020787928
H         2.73845816862455   -0.26440082596030   -4.24266212107000
H         5.34729664097224    3.03808813291319   -2.11179857242790
H         4.24648669813791    3.25903244240881   -0.76766232365315
H         5.13009980956114    4.99695962505241   -3.06649159333990
H         1.96024857051956    4.17389808872163   -3.97411060798553
H         1.42577080802836    2.95948359791440   -1.39987158413425
H        -0.93730021189639    3.15458706339351   -1.97607925823790
H        -0.57612844473151    3.59652318770171   -3.65085053371458
H         0.59761158180498    5.26020892090649   -2.78253043762418
H         1.90660979619549    1.66559905759992   -4.10319210007473
H         0.23561972341194    1.39328606391159   -3.36701190905697
H         1.34170716641313   -1.05758772527430   -0.81735304737535
H         0.55453110778375   -1.16829406867267   -2.47766657025237
H        -0.80748009796501   -0.16562272176351   -0.48803669698879
H        -0.87907841606309    0.61515985406047   -1.89109275976323
H         2.41280538742443    1.57234322169974   -0.59479474839721
