35
 energy: -49.721796562045 gnorm: 0.109457655783 xtb: 6.4.1 (79825abcba525fcdf90b791dcacef51065a7a4e7)
C         3.52448095196746   -1.34024225258677   -2.91133829060160
C         2.89860641903377    0.01511090982352   -3.20592835735664
N         3.91687391593531    1.08626347318633   -3.00185611741412
C         3.60883255104481    1.71818633209351   -1.90613150259787
C         4.14392986240405    3.06325876798816   -1.52982585458346
C         3.52555302383903    3.93619412079133   -2.62842322066234
N         4.02237495262026    5.05447384518212   -3.05534622409374
N         2.47500771449064    3.38122390052952   -3.34002176402669
C         1.18183421317082    2.97638807447455   -2.75545589413972
C         0.07913490097230    3.92703217377741   -3.28927407896021
O         0.40520287789777    5.29333005559920   -3.03362641452870
C         0.88972300977231    1.49379731713899   -3.07618510831847
C         1.70855586238693    0.44449550509868   -2.27093352217818
C         0.92087225202828   -0.75545191681115   -1.65939675078980
N         0.25870115221022   -0.41117603663194   -0.39152234456190
N         2.53723792695137    1.12933664312029   -1.25908592469746
H         3.87725838645508   -1.40494376202387   -1.87517253433274
H         4.38810141738743   -1.40243822477445   -3.58173625657226
H         2.89195690755380   -2.19574849866856   -3.15704148241937
H         2.55625938090449   -0.14936843521061   -4.23668509983365
H         5.21785341860359    3.05487734554083   -1.73301319341765
H         3.92025200583840    3.42043694100949   -0.52266848472003
H         4.92622690304828    5.44914357376673   -2.76640848876962
H         2.36989522140578    3.99410839700146   -4.15195130134658
H         1.26296950092350    3.02440070460404   -1.66107399383496
H        -0.85481408659039    3.66467452559996   -2.78179467275877
H        -0.11990115707063    3.76225804034722   -4.35564805599966
H         1.37776178557543    5.31732719210570   -2.95349795681900
H         1.04634883295187    1.36208898861262   -4.15516215614627
H        -0.19727672881897    1.37327680813152   -2.97454242467145
H         1.71930416149955   -1.47652456785032   -1.48617991144396
H         0.11967005611929   -1.12377064504293   -2.31215784402902
H         0.87361347309126   -0.34488173813838    0.41587126270203
H        -0.25600489736061   -1.28755615755763   -0.29136919035376
H         2.12308853695626    1.67376193833930   -0.50520605954666
