35
 energy: -49.722481507537 gnorm: 0.111467595863 xtb: 6.4.1 (79825abcba525fcdf90b791dcacef51065a7a4e7)
C         3.78034210145001   -1.36816489034923   -2.61738212116501
C         3.06849209399257   -0.15211013910450   -3.19180779276642
N         4.03567519851291    0.98013859547153   -3.09987494284842
C         3.68853819403166    1.59238337290529   -2.00466690893032
C         4.20245094896063    2.95281803226251   -1.65500116978899
C         3.56272041397126    3.87157234911602   -2.70283584900498
N         4.02634573519275    4.99276424332175   -3.15849482538640
N         2.37184227673937    3.50920136775758   -3.30988311316652
C         1.19654607059922    2.84907187431184   -2.70920444115758
C        -0.03516649418861    3.69843961880730   -3.11674638382146
O         0.09190381016676    5.01975226544034   -2.59097838234047
C         1.02902958802382    1.40359935148743   -3.22768199536750
C         1.84045241105339    0.38962671904503   -2.37129177530488
C         0.84744249231608   -0.59264504937798   -1.67604358624491
N         0.22877727533538    0.19553026897753   -0.59876228417025
N         2.62520721065544    1.04719510811118   -1.30765618448127
H         4.30620534995944   -1.76059880811440   -3.49587011191040
H         3.13600441876710   -2.14798642660102   -2.19803811049568
H         4.46179764006932   -1.03355058463997   -1.83252590366088
H         2.67580157434189   -0.32662353092415   -4.20277448463283
H         5.29265478988547    2.98679272091227   -1.58451413009980
H         3.89420411708858    3.19247310876542   -0.63543100371710
H         5.00510636838328    5.04138209882336   -2.84887974351334
H         2.20769974033944    4.11333427854472   -4.11857727663405
H         1.25858506812344    2.87932660556151   -1.61294001176080
H        -0.97475465507968    3.38317451566858   -2.65154793449411
H        -0.10852191506024    3.72994544557558   -4.21107069378118
H         0.78779776782310    5.49173490810858   -3.08679210360599
H         1.33179978068913    1.34927650135791   -4.28193502537524
H        -0.05396704414473    1.22091611696632   -3.24072060320563
H         1.31219709067173   -1.49439348826038   -1.27817894156357
H         0.12100484264254   -0.66371960954474   -2.49513910482792
H        -0.43319114035579   -0.33866866756723   -0.04124470408110
H        -0.30167182232686    0.89520688048287   -1.12036700369874
H         2.10384334729879    1.48329827188458   -0.54986516681605
