35
 energy: -49.722564047717 gnorm: 0.106960553453 xtb: 6.4.1 (79825abcba525fcdf90b791dcacef51065a7a4e7)
C         3.59418497010132   -1.40884804876478   -2.80126999201287
C         2.97827493001914   -0.08443319244249   -3.22796024094958
N         4.04874736206495    0.94610967451190   -3.09397447271812
C         3.77201066097100    1.64633708807559   -2.03193549269520
C         4.28876321280557    2.99934082630720   -1.65843496986600
C         3.63250896191535    3.90924898602402   -2.70376731051521
N         4.19897948818402    4.92570125264219   -3.27436414712661
N         2.39967593413495    3.57080097515220   -3.23629479703326
C         1.22421691376836    2.92806772899501   -2.61734645346056
C        -0.08645441297683    3.66786965985156   -2.99079741618228
O        -0.16311703343640    5.08501422806552   -2.83500887445441
C         1.03081160605239    1.47726167021990   -3.11133808532745
C         1.84013918752441    0.44239698525968   -2.27827405871905
C         1.04763114331131   -0.63092660105822   -1.46944523837768
N         0.04600537635119    0.04626457860028   -0.63119711686679
N         2.67127922911778    1.20067459357046   -1.32235656035295
H         4.63483162401535   -1.45997266191598   -3.14291088526964
H         3.18419010962305   -2.34155054845934   -3.20265801128372
H         3.63939615678051   -1.56030978885279   -1.72082427038240
H         2.66450936737205   -0.11985662742881   -4.28010603812089
H         5.37039468518183    3.11596411748274   -1.76397885082385
H         3.97125781515410    3.06300788883451   -0.61578889865474
H         5.15430001189580    5.10101176376641   -2.93846760394186
H         2.20438654771363    4.12869502474039   -4.07087366474015
H         1.19502920678499    3.07754606902632   -1.52952100899409
H        -0.85851852357115    3.31957867921519   -2.29708421805140
H        -0.28263443529947    3.37953389527152   -4.03113160343483
H         0.44638662633031    5.53489473577466   -3.45062245221471
H         1.43160624979434    1.38569945467504   -4.12969472122223
H        -0.03983785547617    1.24338969196676   -3.03759185655718
H         1.77346459249877   -1.23721210604833   -0.92812550306859
H         0.51457080483497   -1.25968510566532   -2.19345499919956
H        -0.74915220503897   -0.57834645917227   -0.52173473659581
H        -0.29589104393941    0.85016683486437   -1.16019909063477
H         2.39118618157338    1.31527982993149   -0.35041674436386
