35
 energy: -49.729336127024 gnorm: 0.102964522234 xtb: 6.4.1 (79825abcba525fcdf90b791dcacef51065a7a4e7)
C         3.70683153156661   -1.32746224288010   -2.57897603331453
C         3.07019970756572   -0.06322677238337   -3.13744988337985
N         4.08011900091628    1.02258064587684   -2.97323271380205
C         3.73685619422624    1.63585936830729   -1.87738223276007
C         4.12367211901298    3.05498671339417   -1.60607805186501
C         3.66557390963345    3.80438551312418   -2.86300670573238
N         4.43848709592064    4.36043539380716   -3.74224417213882
N         2.29859625879658    3.81618402155668   -3.08491370099249
C         1.16864532991926    3.05479299818858   -2.51799081816097
C        -0.08299604456020    3.78741913582488   -3.06688483333342
O        -0.09378872915689    5.17103999178150   -2.71485812916579
C         1.07834409051345    1.59733580496021   -3.02191118027252
C         1.86842023503602    0.48104838716532   -2.28053829855098
C         0.94379955809771   -0.66835513391676   -1.77236047854297
N        -0.16581937742168   -0.09191391849825   -0.99714224167565
N         2.65756180980542    1.10054023213285   -1.19746749442661
H         4.70362547868739   -1.43128496776866   -3.02383595786880
H         3.22671404746309   -2.27724698236743   -2.83692608233342
H         3.89007331976515   -1.13088480091211   -1.52061530802982
H         2.80967300711866   -0.23317484718949   -4.19099528144709
H         5.19804212635776    3.13630007723022   -1.42227284939845
H         3.55921157235125    3.31282824141090   -0.70781526482413
H         5.40437488726272    4.57653341392378   -3.46554943398389
H         2.05649347905196    4.01661801518209   -4.05811360490431
H         1.08178398900686    2.98156105652937   -1.42544697108167
H        -1.02362585236740    3.36520172389668   -2.69867889771965
H        -0.16759581048197    3.67564500738432   -4.15512596005184
H         0.83207859996557    5.47046568961706   -2.79219635448047
H         1.36778180853952    1.53197425918211   -4.07927766333054
H         0.01393133409625    1.36268903033348   -3.15752545446674
H         1.45067194969079   -1.42060343844219   -1.16850104289127
H         0.54916238467925   -1.19615175009326   -2.64949954345870
H         0.13312632890457    0.38856456617388   -0.15205737779809
H        -0.85434370405855   -0.80061923956752   -0.73894444268440
H         2.16452292905638    1.73966540513645   -0.57723756867755
