35
 energy: -49.731185090407 gnorm: 0.120646118114 xtb: 6.4.1 (79825abcba525fcdf90b791dcacef51065a7a4e7)
C         3.56252248870078   -1.42202170248693   -2.77642687149652
C         3.01108868731369   -0.05117770426061   -3.14000897908344
N         4.07362596809604    0.98274673782587   -2.97298566343802
C         3.62648047563561    1.64422178869698   -1.94471521994999
C         4.17598103453714    2.96876512062305   -1.51952223729778
C         3.63741268079100    3.85402905002850   -2.64982048269913
N         4.34385019816520    4.74671553458184   -3.26925708792105
N         2.38704357809497    3.69060126676463   -3.22242709288644
C         1.20038354032214    2.97998977297498   -2.70786295911320
C         0.00558950042770    3.77332930554993   -3.29753357745844
O        -0.01892055486694    5.11812763951044   -2.81861535700919
C         1.00616493716458    1.50001520743171   -3.10563923117028
C         1.79535931139614    0.44766952002399   -2.27516196063786
C         0.91062954840129   -0.66947096428089   -1.63990850507102
N         0.03076095035294   -0.04271001245087   -0.64115731518436
N         2.55719558593551    1.14691885256355   -1.22149558986714
H         4.57028701155910   -1.43338320634507   -3.20835194460885
H         3.06291120930106   -2.21510465669881   -3.34259829294914
H         3.61423917976432   -1.60990734895872   -1.70200980440673
H         2.74014667027044   -0.04199775714011   -4.20453731439876
H         5.26748224465388    2.97419728839782   -1.57664273097134
H         3.79461792259305    3.38092957882909   -0.58322279512597
H         5.30377313410716    4.75269188002239   -2.90222873386165
H         2.38014796782150    3.94045640462522   -4.21410771584944
H         1.20252127091765    3.14604729793467   -1.62205440418251
H        -0.96030583576914    3.43170461015923   -2.91157196637109
H        -0.06047145153765    3.73443113149180   -4.39208472386257
H         0.62176271179355    5.64428203289355   -3.33393444988522
H         1.36038974172611    1.50132512861109   -4.14515512270451
H        -0.03422022657505    1.15460376336240   -3.03697687200653
H         1.54085607220974   -1.45788284037413   -1.22922054071630
H         0.36251069223920   -1.06737399245442   -2.50299576102585
H         0.66573763993752    0.25919530290479    0.09372657008535
H        -0.57370573717119   -0.74738491899876   -0.21565950523601
H         1.98919648121674    1.81999367630586   -0.71100485020367
