35
 energy: -49.721318932869 gnorm: 0.122887612043 xtb: 6.4.1 (79825abcba525fcdf90b791dcacef51065a7a4e7)
C         3.58095817931225   -1.45142575933605   -3.03724818103337
C         3.02302901819221   -0.05445989926550   -3.26678216716863
N         4.10231192186705    0.95096325189303   -3.04282974327785
C         3.72020277659964    1.57093099773155   -1.96372779559301
C         4.21070134512575    2.90668611981499   -1.50294112479889
C         3.60928448585964    3.84235552691385   -2.55847070234795
N         4.04686678355463    5.02058302896181   -2.87461384555878
N         2.43406534503966    3.54690731462118   -3.22897808450545
C         1.17761908148369    3.01097355157680   -2.67038633775871
C        -0.01743560778095    3.79009348574053   -3.27820886634896
O         0.01194529352836    5.21168388230328   -3.14912187824343
C         0.89183833073533    1.51241422934395   -2.91312245380000
C         1.86045143099359    0.44329510145105   -2.33112193038529
C         0.93279628930259   -0.63394237974722   -1.68822855263725
N         0.27349412602160    0.00820053324440   -0.54041536562640
N         2.63210126987033    1.09496483810678   -1.25434896496219
H         3.70504149052790   -1.48863419659092   -1.94844308204419
H         4.57139136708692   -1.60495982100562   -3.47839607596632
H         2.90645871319001   -2.20432346823017   -3.45021690745853
H         2.72705426001150   -0.02237643436838   -4.32417707873128
H         5.27917999233461    3.07011540848366   -1.66514899082570
H         3.93642049623131    3.02287535028207   -0.45258686671075
H         4.98086556369341    5.25321493904925   -2.51443856203843
H         2.23632574079536    4.13501413341462   -4.04195717855798
H         1.23992129507957    3.29065022186838   -1.60998109857043
H        -0.90932616593074    3.43050392765956   -2.75489808791171
H        -0.13375668092158    3.68437599466272   -4.36412439764236
H         0.81927201282986    5.51992251551330   -3.60308197789929
H         0.91653196748951    1.32954647924073   -3.99572109469193
H        -0.05248583721165    1.26742838075168   -2.40848529140950
H         1.46880518908441   -1.56591566299402   -1.51056704054958
H         0.12408899446729   -0.94998541176386   -2.35889241482949
H         0.98689923042276   -0.04055972082100    0.18282189507345
H        -0.53843516915920   -0.45568234581396   -0.12983214977762
H         2.05043219421756    1.65760385356330   -0.63681199642444
