35
 energy: -49.723043769402 gnorm: 0.107898645987 xtb: 6.4.1 (79825abcba525fcdf90b791dcacef51065a7a4e7)
C         3.71237180566373   -1.26131176833887   -3.08486684417384
C         3.00796083131622    0.08324156021604   -3.19194591873459
N         4.04657437293186    1.14460278289263   -3.04815355201837
C         3.79219015467337    1.67381134936300   -1.88623472021075
C         4.13012949418644    3.09639188360817   -1.57124812613547
C         3.65463613805167    3.80391910082310   -2.84585923443183
N         4.36734541682009    4.62251915383945   -3.55408534896083
N         2.37808258304005    3.56503294329795   -3.32685222438452
C         1.26526536993726    2.97738487074264   -2.55599909028329
C        -0.00368725794752    3.79895715193462   -2.90155666565859
O         0.10864002138818    5.11375158809970   -2.35644738378685
C         0.94658817688180    1.50277251581987   -2.88801531376322
C         1.88513252996552    0.49198177462663   -2.16871827979500
C         0.98397020638265   -0.61979192309203   -1.54729876946014
N        -0.39424208743395   -0.20483951409183   -1.24259019524389
N         2.75591596379748    1.12050451732610   -1.15567717658952
H         4.13049871377601   -1.53209312146292   -2.10807361475123
H         4.44814278859667   -1.28766219850859   -3.89547697888010
H         3.02247393841309   -2.06754540515824   -3.34250207512668
H         2.54027645516096    0.20480722223671   -4.17845872664228
H         5.17872381913968    3.30162080881372   -1.34103484622869
H         3.54718947562181    3.40252280524959   -0.70036421440693
H         5.32209468256005    4.90266314118186   -3.29684861294962
H         2.11196483524855    4.12126676514113   -4.14275103313042
H         1.46713238573142    3.06022403180932   -1.47945496317274
H        -0.80483005364015    3.34241230485868   -2.31133245496696
H        -0.30847252194255    3.74450319205982   -3.95420096998102
H         0.99847006638546    5.48778556939029   -2.50194079099123
H         1.05839469203137    1.44079926039990   -3.97876222374964
H        -0.08779507917990    1.26663464323763   -2.60391138186203
H         1.56292955654932   -0.88045628915447   -0.66168965120125
H         1.02117769145435   -1.51964665032854   -2.17384307186807
H        -0.58560270924715   -0.53489075045843   -0.29980505019952
H        -1.04034249973110   -0.73297446087176   -1.83133701317112
H         2.36275675949847    1.47653606963132   -0.28681537200897
