35
 energy: -49.722837477393 gnorm: 0.108243863466 xtb: 6.4.1 (79825abcba525fcdf90b791dcacef51065a7a4e7)
C         3.60638975398597   -1.44783464020933   -2.91925174298336
C         3.11417449364934   -0.03556405076965   -3.19978758105376
N         4.08206649530045    1.07344672535772   -2.95655482711503
C         3.67819956497546    1.71662522184062   -1.89918007953042
C         4.24355141769577    3.06570987396855   -1.58692563119409
C         3.64987910875817    3.90519437982574   -2.72452887682874
N         4.42420908832073    4.69909705893556   -3.39518260090256
N         2.33430958317276    3.70600929828312   -3.10873186602048
C         1.17653287526085    2.97166248533969   -2.56265971800466
C        -0.11111808319356    3.67673014228435   -3.06212585781436
O        -0.23116122501349    5.07620258642374   -2.80617182114490
C         1.01499002956419    1.51447572843048   -3.04926242443312
C         1.89681809253461    0.45292304983672   -2.33132309901710
C         0.95792334206813   -0.61019602959817   -1.68128384351105
N         0.06983594829943    0.11065731440045   -0.75598755590538
N         2.59430855248261    1.16341998322026   -1.24125056871054
H         3.81491021726323   -1.52178003135853   -1.84532019206922
H         4.46955071016079   -1.81248957200029   -3.48592803484482
H         2.81098782066032   -2.11519639951726   -3.25735189725234
H         2.84223653965496    0.10765287676269   -4.25442167904695
H         5.33011091486044    3.02895455721763   -1.69964052547330
H         3.92001953883711    3.35645678022656   -0.58554290728797
H         5.34058429149845    4.67242155252267   -2.93070173634687
H         2.26514811449544    3.99816580381186   -4.08636515919201
H         1.19126669246203    2.94293125661333   -1.46469919830923
H        -1.02273579281326    3.15839352142814   -2.74762961752681
H        -0.19624106260256    3.66251788651573   -4.15595921643098
H         0.62441506275251    5.40404159904311   -3.14288840655344
H         1.25448326636753    1.52289679077341   -4.12100973088073
H        -0.02437383124742    1.16412910688993   -2.99091107776753
H         1.44261235674861   -1.43127377255118   -1.15369379699948
H         0.25697426640538   -1.09088489987402   -2.37503402027828
H         0.64528058863897    0.37299233895098    0.04053007802752
H        -0.60555651511676   -0.57775446162899   -0.41993795419755
H         2.15743467790109    1.75063697851585   -0.53374021294395
