35
 energy: -49.723163567592 gnorm: 0.121216222851 xtb: 6.4.1 (79825abcba525fcdf90b791dcacef51065a7a4e7)
C         3.67129553450737   -1.46296111778634   -2.79165495219987
C         3.00420390774786   -0.12953213195474   -3.09569500434584
N         3.96162911297626    1.01465956971490   -3.08903602473251
C         3.68658910585320    1.59854272742965   -1.95843358641989
C         4.18103556366424    2.99050782711924   -1.72367672749698
C         3.59981042261311    3.94437949247978   -2.77421389241528
N         4.21543577310802    5.00398100030334   -3.19598972833793
N         2.35463111244377    3.67380601373359   -3.31673420806371
C         1.24302240374369    2.95682456105607   -2.66238671752198
C        -0.03364393060865    3.74336527413671   -3.05749252491990
O         0.04357271460483    5.11975948902022   -2.68597871815253
C         1.14396864020410    1.47501354766979   -3.08747023419897
C         1.85072655760007    0.42621743290055   -2.18167133541364
C         0.90569954884469   -0.65487781818994   -1.57138158894391
N        -0.31952386914941   -0.04108397256657   -1.03604368874112
N         2.72026535589568    1.02644817497270   -1.15056402661207
H         4.20448864656354   -1.81777305975245   -3.68165005071402
H         2.87748081343075   -2.20212774883051   -2.64121239033783
H         4.29518008258760   -1.36552442800263   -1.90080040167868
H         2.73431392725671   -0.30337768560201   -4.14624321816244
H         5.27216281112633    3.02384507686943   -1.66893112393415
H         3.78561279491014    3.25556680855632   -0.74115010249195
H         5.22577793770250    5.02863894539369   -3.00944682943555
H         2.16619123869834    4.09999704377272   -4.22709523560889
H         1.38684201564717    3.07191735294928   -1.57950655411396
H        -0.93583527519289    3.31653571638929   -2.60749819622571
H        -0.23934114309385    3.68493688335638   -4.13368679412993
H         0.96009601968543    5.42943583231799   -2.81618184274790
H         1.44275234086123    1.33552654532300   -4.13501110751257
H         0.09025090931545    1.17168099540451   -3.15144817384382
H         1.53628126115877   -1.20350501723018   -0.87222619566110
H         0.80322036106704   -1.37363410425077   -2.39391920543452
H         0.02767991575998    0.80259208577855   -0.58653642382318
H        -0.69884516179421   -0.63522629386100   -0.29705428070487
H         2.31036167969728    1.71712838349483   -0.52510953884308
