35
 energy: -49.722710532847 gnorm: 0.116469795402 xtb: 6.4.1 (79825abcba525fcdf90b791dcacef51065a7a4e7)
C         3.71388846166378   -1.28426219124637   -2.69204002189284
C         3.04925820451419   -0.00072442239918   -3.16773096949335
N         3.97751108988511    1.15807377785813   -3.02139120132439
C         3.61743635230526    1.70392272422831   -1.89568095920080
C         4.12806641690511    3.07801163872903   -1.59854200790270
C         3.65675370297630    3.77701251140948   -2.87939496621853
N         4.32301338553972    4.66606971517863   -3.54671807567940
N         2.37955499836176    3.50751242611814   -3.34215085162361
C         1.16189475888374    2.91696710232709   -2.75353661079393
C        -0.05248697119346    3.79739990452464   -3.14691546202023
O         0.20715755671960    5.10046799685923   -2.62437912197415
C         0.90221287013234    1.42598935504997   -3.06308824694313
C         1.82032777039933    0.43735307040905   -2.28874010809376
C         0.84983027227822   -0.63366850572347   -1.70108037179231
N         0.01227117196584    0.01710051909119   -0.68152340142064
N         2.54705234410599    1.14812377886720   -1.21811722863790
H         4.77455217693200   -1.25617538745134   -2.96859254925601
H         3.23770629372192   -2.17957338238724   -3.10533228823534
H         3.68896985380991   -1.31075407245089   -1.60069914275395
H         2.85152217280167   -0.05011542788763   -4.24716388269188
H         5.21809148290691    3.14806003291559   -1.55847055986810
H         3.74896328122963    3.39948723475364   -0.62647809445849
H         5.26985209756714    4.86211845535090   -3.19849557653079
H         2.21841543935104    3.89005015344217   -4.27681898636624
H         1.34779585200407    2.86912630588228   -1.67200439417390
H        -1.00282375878850    3.39863993608188   -2.77748608194816
H        -0.10090690936448    3.93820055303548   -4.23399872321653
H         1.14716172355747    5.24888421101063   -2.40704975386973
H         1.11571536491408    1.31025561906775   -4.13411233904259
H        -0.16473833129939    1.16655970941206   -3.09022236539423
H         1.35845374545213   -1.46626526956916   -1.21576794347289
H         0.24430391978313   -1.05538186896086   -2.51297715517496
H         0.60209004145385   -0.07762209619209    0.14160348428515
H        -0.79933178097611   -0.57663098401914   -0.50325776485749
H         1.97733596611702    1.49604161574988   -0.44959272690999
