35
 energy: -49.718207854671 gnorm: 0.112320300145 xtb: 6.4.1 (79825abcba525fcdf90b791dcacef51065a7a4e7)
C         3.71806391514648   -1.54854168100685   -2.73878167548975
C         2.99043685634171   -0.27456610029400   -3.14255079566312
N         4.02153690551910    0.79944844417374   -3.04659541488174
C         3.73731479390634    1.56265160201101   -2.03093448839823
C         4.22291964179293    2.94458886078681   -1.72829239767024
C         3.51942395936535    3.97753896012376   -2.61679118038126
N         4.08611421944872    5.10691385898287   -2.90492186255950
N         2.37511937906905    3.65003320437234   -3.32482850263108
C         1.21570960201522    2.93216222221770   -2.76061470495133
C        -0.07560494703563    3.67122355672662   -3.19756653972008
O         0.02213032774392    5.07934703102436   -2.98289923551868
C         1.20905111968756    1.46865844716751   -3.25496671446437
C         1.83782869974467    0.40225368898682   -2.31296282706800
C         0.78966560833206   -0.50474523850975   -1.59672012807868
N         0.05577633878333    0.31084266593464   -0.61655438975300
N         2.64874899321129    1.11352188244985   -1.30496343908145
H         4.38118049535062   -1.89996478422912   -3.53819138122321
H         2.89220123259115   -2.26756145479489   -2.72860935529502
H         4.18067438441357   -1.51346914563300   -1.75029337037856
H         2.71840624006460   -0.46301246948002   -4.19002476646981
H         5.26762492134166    3.07169706291113   -2.02342206410931
H         4.07033592428785    3.28814508344072   -0.70327468178367
H         4.91892433275728    5.30086973638228   -2.33482889126631
H         2.16283070302582    4.38071978943582   -4.00815582582265
H         1.34273546373990    2.86265944312021   -1.67176499823233
H        -0.92209306042074    3.31482247227528   -2.60169429373987
H        -0.36017717246931    3.39643370834179   -4.22100609038910
H         0.95657488412677    5.36099526874500   -3.00173805230445
H         1.62756295223033    1.36796244005583   -4.26530248267291
H         0.18136063275235    1.09265208934048   -3.34928722814457
H         1.29095397940074   -1.38786307781857   -1.20142758009482
H         0.05342408668885   -0.90211407606447   -2.30645749345828
H         0.44544133904569    0.33281735838110    0.32263400246942
H        -0.77716145721424   -0.21660762344762   -0.35008505694787
H         2.27113776323200    1.78771941689400   -0.64230144602398
