35
 energy: -49.723735575462 gnorm: 0.115034734127 xtb: 6.4.1 (79825abcba525fcdf90b791dcacef51065a7a4e7)
C         3.47824418303802   -1.53215142895227   -2.45267474630044
C         2.88746237450849   -0.27388505963264   -3.07172811277725
N         4.05299232753061    0.65524932075655   -3.13600296254855
C         3.89973652178104    1.55277073734012   -2.20552115780161
C         4.56259328043082    2.89203877366948   -2.14120176413231
C         3.79041321422962    3.88821234849878   -3.01452778398455
N         4.33050179921910    4.91396649039940   -3.59399095967236
N         2.47958850865732    3.63529436268043   -3.38301242498969
C         1.29335667669369    3.07878342865243   -2.70400092647506
C         0.01378235758022    3.76424445387367   -3.24940408034164
O        -0.91651095168519    4.09953893817826   -2.21956043531255
C         1.12373101487991    1.59063626579344   -3.08204423512791
C         1.90320641400993    0.58112977444998   -2.19138913903150
C         0.88450912211540   -0.24867288179512   -1.34997366813994
N        -0.01810798142647    0.65261408526940   -0.61685283108797
N         2.83311862057672    1.35658444890625   -1.34670557770742
H         3.86779538354373   -1.32729632994994   -1.44840290141030
H         4.36300270873883   -1.70547461458345   -3.07420794206635
H         2.74520023537360   -2.34044725680490   -2.41202873789590
H         2.53043478404445   -0.39323246038877   -4.10371742109515
H         5.58451394101886    2.80644866319232   -2.51938113894799
H         4.72502981756255    3.18654066937935   -1.10252135146092
H         5.32654484828500    5.07283049906827   -3.39686654725122
H         2.26033596123868    4.35133288015671   -4.07951997739085
H         1.26670049224700    3.26617820930386   -1.62199697975936
H        -0.60339873440388    3.29671177865297   -4.02343785949481
H         0.25161949665757    4.77031288934503   -3.61707123243489
H        -1.12110417796991    3.29131117859276   -1.71184322849394
H         1.48763111171434    1.45640455930813   -4.10948221418677
H         0.06230408278926    1.32059280097846   -2.99913292303242
H         1.55084306431143   -0.75606082191382   -0.65283671252028
H         0.43189956820230   -0.97428242296937   -2.03722624661341
H         0.55865708454715    1.05151149568352    0.11977425019985
H        -0.86173200240849    0.12182851418900   -0.39423145325306
H         2.39434389416833    2.13919960891117   -0.86582747887964
