35
 energy: -49.721182592445 gnorm: 0.099305066851 xtb: 6.4.1 (79825abcba525fcdf90b791dcacef51065a7a4e7)
C         3.64981167860577   -1.61160105008372   -2.49200148785652
C         3.16280372781707   -0.30172949397473   -3.09411792258505
N         4.21982543744782    0.75105712465203   -3.10919879977641
C         3.85284930475684    1.56122098206203   -2.15851934261488
C         4.39677585594334    2.94285212775162   -1.97853555596804
C         3.57120179000787    3.96089440412180   -2.77436187103364
N         4.02479184810536    5.10843324526080   -3.17066409063938
N         2.26797906596949    3.69791976928941   -3.16225964213096
C         1.18332431000056    2.88281962458211   -2.58170578719894
C        -0.15944768266560    3.51291726901979   -3.03400234100546
O        -0.28425924277057    4.90250142547112   -2.73081279212299
C         1.25929069855777    1.46120803822857   -3.18130662950271
C         1.97115947767598    0.37657595723165   -2.32295483698939
C         0.89124244748881   -0.39578126448131   -1.50347934058828
N        -0.16618634945190    0.50305892711821   -1.01518371389394
N         2.79813046529959    1.14086181431414   -1.36820718795844
H         4.69902346576594   -1.74134429541278   -2.78286055693153
H         2.99598686883216   -2.45078079735452   -2.75167926645592
H         3.58293011459206   -1.54351378674081   -1.40423375209947
H         2.91890158879682   -0.50576784673948   -4.14559046714950
H         5.39871152462771    3.01732298615355   -2.40893785203485
H         4.37977483683744    3.27427789942181   -0.93841926265671
H         5.02126430211652    5.26499770952986   -2.97387035267770
H         1.91608209942454    4.33276866090550   -3.88270464301422
H         1.17029900921418    2.82686447137952   -1.48477404769805
H        -0.95988415761941    2.92833044227596   -2.56904289287998
H        -0.29282751604523    3.46194982169940   -4.12190466665169
H         0.53510840691284    5.34948683263599   -2.44496675021509
H         1.68221431307413    1.68308311740604   -4.17023396933398
H         0.22365455378355    1.14290117681583   -3.36175993824718
H         1.46132995828589   -0.77448201893750   -0.65552336583704
H         0.45919908235781   -1.23938602499007   -2.05606439541800
H        -0.15203617351620    0.70063794851358   -0.01760723196589
H        -1.09057476268068    0.35161667016130   -1.42208221043572
H         2.28375269008086    1.48911914886298   -0.56174218461156
