35
 energy: -49.719273368822 gnorm: 0.108244653239 xtb: 6.4.1 (79825abcba525fcdf90b791dcacef51065a7a4e7)
C         3.73086028943607   -1.23287877272749   -2.87317868736202
C         2.99874551947567    0.01801667773453   -3.33659317586154
N         3.96331291289474    1.13126602035426   -3.09959600654214
C         3.64634345544490    1.72457702585187   -1.98499256247443
C         4.06952022849330    3.10402653414666   -1.59104407617118
C         3.59176107914899    3.89258168582893   -2.81629880755449
N         4.27766329446467    4.84074848656396   -3.37322130734912
N         2.42438123902576    3.45161287682294   -3.41694900529040
C         1.22477263283452    2.88449659021049   -2.77101922615034
C         0.02829816362340    3.84853266399171   -2.98010085851316
O         0.18701674488487    4.96940161684540   -2.11009674192027
C         0.85086304241147    1.43741238230451   -3.16141705026677
C         1.79324920778836    0.44575354546420   -2.42082756629653
C         0.90500039291935   -0.65810729828961   -1.76752682388217
N         0.09063742828764   -0.18543684553075   -0.63708550243489
N         2.59929848215485    1.07508687360353   -1.35603599906957
H         3.75089321620556   -1.23584743788397   -1.77688148624243
H         4.79268520968730   -1.20411677836747   -3.13934154585510
H         3.17641293882037   -2.12254861245720   -3.17883107231921
H         2.75650785466472    0.14657889735085   -4.40031639737253
H         5.14176591755420    3.18312080579976   -1.39431987733194
H         3.59911285302041    3.54135763665683   -0.70818938490735
H         5.15176873139630    5.12487289888346   -2.91342726214521
H         2.27951594249960    4.00619571971142   -4.26391860949406
H         1.38991355716867    2.90248780141063   -1.68521782307518
H        -0.90653938565727    3.31433261097900   -2.78176615996582
H         0.04160134235227    4.24006608871060   -4.00501252956739
H         1.11330104570033    5.27144936195042   -2.17036128208026
H         0.92986697599061    1.13374655886256   -4.21385025755272
H        -0.10325337628849    1.37773762096801   -2.62056062705736
H         1.55482184260094   -1.47692447219645   -1.45977061589622
H         0.31472942412916   -0.91139841375208   -2.65696738612971
H         0.38523920911997   -0.62574094963567    0.23109571400222
H        -0.91619131375215   -0.32063286964523   -0.74202836007532
H         2.08040465423971    1.44899690413961   -0.56408021307717
