35
 energy: -49.718943729686 gnorm: 0.123687216440 xtb: 6.4.1 (79825abcba525fcdf90b791dcacef51065a7a4e7)
C         3.70471094801237   -1.27318451302770   -2.60213690886366
C         2.97222662890727   -0.05839730365842   -3.15281214905367
N         3.91756898406044    1.08739391613186   -3.01362763623472
C         3.59403560138000    1.65048708647275   -1.88531887726163
C         4.16974223150725    3.01172344416074   -1.65564000277421
C         3.67264219759257    3.87502030205400   -2.82137250602295
N         4.39589642463051    4.76263895598444   -3.42856377879461
N         2.42235113060066    3.59840897037385   -3.34888387954507
C         1.25978834250187    2.98050401570068   -2.68213940984937
C        -0.00114064664984    3.80961829232216   -3.03887379049816
O         0.15357185829286    5.17725306016376   -2.65928831071930
C         1.05065938786761    1.50092844676976   -3.07379327954640
C         1.81565381832777    0.45214216188878   -2.21659869379404
C         0.93483595528832   -0.73914102860704   -1.72741486260924
N        -0.23497702949446   -0.21649199759172   -1.00431213921691
N         2.54666313739802    1.14422966456327   -1.13669258063459
H         4.58072435595544   -1.53166225554078   -3.20882253605850
H         3.05535848719974   -2.13121447769618   -2.80528229576107
H         3.78644725625905   -1.27412244058393   -1.51325401155666
H         2.64944604071330   -0.29909412630462   -4.17486506085839
H         5.24386637043395    3.16980302939852   -1.52940488258469
H         3.69590696246077    3.45240810675883   -0.77629298754432
H         5.37361927179589    4.82348652142029   -3.11783372181180
H         2.30259468018020    4.21510072440731   -4.15588776019835
H         1.31510388644131    2.95825430991516   -1.58532355537072
H        -0.91441565089248    3.47623707679236   -2.53547204262091
H        -0.22162330892523    3.78241336589006   -4.11338140333171
H         0.84136487466324    5.44106628187642   -3.29976517458675
H         1.48415301519347    1.30967342723079   -4.06453795549541
H        -0.02167128729330    1.27656147472506   -2.99510872266005
H         1.51013887894840   -1.30791877497520   -0.99737254565659
H         0.68087345926965   -1.39178661170836   -2.57194875821172
H         0.17491933030471    0.14809121491009   -0.14788899815250
H        -0.93186521002820   -0.93580566673961   -0.80448773076004
H         2.03570204666288    1.71386320288323   -0.46535818232308
