35
 energy: -49.716867620381 gnorm: 0.112529337951 xtb: 6.4.1 (79825abcba525fcdf90b791dcacef51065a7a4e7)
C         3.46930255992967   -1.53658170112447   -2.61946895581379
C         2.96317196854749   -0.16118576175221   -3.02886153392221
N         4.05638472479177    0.85388521475529   -3.04883127588992
C         3.75790959017919    1.70473043198894   -2.10978738578070
C         4.39764995498448    3.04653877795140   -1.94414455428987
C         3.84575605068306    3.97363506030335   -3.03374438331600
N         4.45293468399779    4.95721011182359   -3.61988346795214
N         2.58597238344979    3.62504381740205   -3.49138955351643
C         1.42527517871268    3.05831311756753   -2.77759316116746
C         0.14924284659204    3.91684945538389   -2.97580687910010
O        -0.69637741067103    3.81473568302408   -1.82996870715955
C         1.10624257040995    1.59283135795707   -3.14752959686789
C         1.84516746287088    0.58981305137574   -2.21592023476575
C         0.78169835783102   -0.35989628005087   -1.58237289812068
N        -0.24222823759073    0.41766874012935   -0.86720232679435
N         2.80081388446752    1.18167407744462   -1.25884270558138
H         4.17153527389231   -1.47357018094341   -1.77972110986721
H         3.99631236395271   -1.97359418377218   -3.47411674296981
H         2.72757574105892   -2.31794910008859   -2.44155330714838
H         2.59560934914923   -0.28256788921144   -4.05690751128390
H         5.46926883409462    3.02753392379107   -2.15847825982648
H         4.35200738855346    3.52075732813925   -0.96179659594848
H         5.44324077294933    4.88309566495609   -3.35531122976297
H         2.36564055899220    3.99969170995510   -4.41713165533518
H         1.58087969405711    3.07244803866936   -1.69032717116393
H        -0.32520979783143    3.61469065218782   -3.91507379507388
H         0.53258556612104    4.92462613103970   -3.17916337451824
H        -1.46068163681993    4.41055258912574   -1.94705211842000
H         1.40493705684559    1.30911715561707   -4.16554633238768
H         0.04865165175288    1.33394046406243   -3.00295492286515
H         1.18671479277963   -1.14683990322725   -0.94666480273791
H         0.33666391590152   -0.96107429020522   -2.38499987116417
H         0.19333567706677    1.23046326650056   -0.43819688015393
H        -0.72908366701604   -0.11297660485263   -0.14305980356282
H         2.42204510793534    1.74207699455598   -0.49809552817514
