35
 energy: -49.719539868067 gnorm: 0.113779171989 xtb: 6.4.1 (79825abcba525fcdf90b791dcacef51065a7a4e7)
C         3.64194797069706   -1.30002139510495   -2.64943924129429
C         2.97495145423590   -0.05672116740785   -3.21935560185330
N         3.84470750236064    1.15329795428568   -3.14682861869306
C         3.57926956587864    1.72567192195784   -2.00807527357079
C         4.07471055615337    3.08327573526135   -1.62258198353986
C         3.66829039942633    3.85522748825923   -2.88362732704087
N         4.36505539176915    4.84219642337515   -3.35272824260274
N         2.49528775246134    3.41711486642543   -3.47534682131174
C         1.27979545839797    2.91777157278926   -2.80367597874190
C         0.04986005086361    3.80998259146790   -3.11327283630535
O         0.06272467075337    5.00137603033244   -2.32659492964927
C         0.94989959196155    1.44695337241036   -3.14151334450267
C         1.80179668762183    0.45159701186163   -2.30277097087081
C         1.05651437005268   -0.71215259675363   -1.57852121525151
N         0.11881867098554   -0.02864340469597   -0.67406339217427
N         2.57163345314296    1.15049698531098   -1.25470267307824
H         4.58319676429566   -1.31456074741244   -3.21168207648597
H         3.11531270289739   -2.19558415241813   -2.99550965113844
H         3.80799829688237   -1.25832345611113   -1.57099766168076
H         2.61583308664486   -0.25937175731379   -4.23753101249587
H         5.14977707974068    3.16013132029812   -1.44094407531957
H         3.52632352923419    3.50386803723405   -0.77739100281181
H         5.25810923690180    4.96806825749749   -2.85997203928942
H         2.40129895807771    3.68011502975583   -4.45916723568598
H         1.30755795954494    2.98483912979717   -1.70764173078125
H        -0.88874856784907    3.29939722775455   -2.87464334062155
H         0.02734692164237    4.08155904672381   -4.17612687823952
H         0.75990914864577    5.53138676212495   -2.75774419547902
H         0.89557204344653    1.20557023178883   -4.21149133364521
H        -0.07631413674436    1.30104111145882   -2.77816794622964
H         1.75995824067275   -1.25385395196275   -0.94672240952711
H         0.66015413239946   -1.42087609001625   -2.31628153319290
H         0.06074432459718   -0.52414002607344    0.21222494128205
H        -0.80529339972991   -0.17396543937873   -1.08381145635854
H         1.91531181866317    1.69359616073337   -0.69744268172100
