35
 energy: -49.725732772257 gnorm: 0.110999635448 xtb: 6.4.1 (79825abcba525fcdf90b791dcacef51065a7a4e7)
C         3.57246880248253   -1.36921764347694   -2.82291342834992
C         2.89853549637288   -0.02633355567963   -3.06366357058882
N         3.95884555093796    1.01925125450954   -2.97213773599606
C         3.69348798773049    1.75028557775904   -1.92810584577977
C         4.13964824209833    3.17752868591035   -1.89534831850990
C         3.54339429424214    3.87084409565366   -3.12624926993102
N         4.16290118548862    4.77880394816086   -3.81288229952723
N         2.39126104179824    3.28976396261066   -3.62918534422110
C         1.28582429514730    2.92099936782795   -2.72368590339140
C         0.03997183967418    3.81855981203993   -2.94017776122208
O         0.28089910721801    5.07163348885329   -3.58065130539910
C         0.78625298507200    1.46033235477768   -2.66754408723334
C         1.83943203315605    0.50881915796074   -2.03084307138341
C         1.08829083684508   -0.63586377031653   -1.28265565528299
N        -0.00593967001244   -0.17988224148051   -0.41131049000215
N         2.68745060945899    1.28200213329672   -1.10207535005313
H         4.05919567178904   -1.45594596077361   -1.84421387198845
H         4.36599094686081   -1.50891258596499   -3.56449956747845
H         2.91731182224029   -2.23504013366380   -2.93896687353284
H         2.56085210347445   -0.04663502470379   -4.10878182781359
H         5.22036689763288    3.18941142966433   -2.05836098053998
H         3.89222834955396    3.58348751954371   -0.91251831784762
H         4.96650981071205    5.27968574868208   -3.41347253870106
H         2.07479364960825    3.69070956767586   -4.51518568434846
H         1.56737111055013    3.11341385326346   -1.67952693812785
H        -0.39406604931564    3.93824347388530   -1.94222258989244
H        -0.70713912437382    3.37419419772386   -3.60971770214591
H         0.67083179982894    5.62104847279589   -2.87427822305659
H         0.63623811495449    1.06419573331538   -3.68077728647437
H        -0.10749717732942    1.42537807322605   -2.03003823782897
H         1.85935873416049   -1.20904777026228   -0.76849833573022
H         0.62641460982878   -1.31829599074710   -2.00697416900226
H        -0.41642024851189   -1.03964425863482   -0.05534489257064
H         0.42635854265980    0.37508360621350    0.32904499673664
H         2.35751530944805    1.94072194840839   -0.39959092655755
