35
 energy: -49.720414592854 gnorm: 0.120858772034 xtb: 6.4.1 (79825abcba525fcdf90b791dcacef51065a7a4e7)
C         3.44177333193463   -1.51107817148741   -2.84464724796944
C         2.94507647429144   -0.13081916390246   -3.24919855297197
N         4.05148851066467    0.86860625163746   -3.19550259065879
C         3.82850733907754    1.59076366839216   -2.13550424395741
C         4.43807368283018    2.89830378793258   -1.74063379310349
C         3.89598138331686    3.79718606252492   -2.85843019692561
N         4.37301989246375    4.76449075520522   -3.57704046006610
N         2.54730165213454    3.66693471442319   -3.14497413837929
C         1.30989198749721    3.10764444839594   -2.56711714428117
C         0.16284689063341    3.96779260714398   -3.15793397903410
O        -1.14381484091800    3.86049678309574   -2.59262991992234
C         1.12792256318189    1.63668988260822   -3.00237723685152
C         1.91188816328163    0.51897614810692   -2.25667913040886
C         0.85773704983621   -0.35797143417585   -1.51235060727410
N         0.25954230447483    0.48947498942889   -0.46903876918357
N         2.81136589312479    1.18184356269636   -1.29174204789891
H         4.08375925611256   -1.38504703482896   -1.96473366675867
H         4.02827377269103   -1.90304583806236   -3.68221555320688
H         2.61743245325819   -2.19252232123152   -2.62454805543370
H         2.53128948747663   -0.12546064715866   -4.26677707189590
H         5.52324183228773    2.98558618927586   -1.83789127327325
H         4.23229429448190    3.13998955626106   -0.69602054828260
H         5.38562488503888    4.86662848558048   -3.43422386006399
H         2.41089325354918    4.38123184959161   -3.86405547110735
H         1.30107955671825    3.33106864317647   -1.49168055614787
H         0.09233086867477    3.71372445325598   -4.22052725053587
H         0.45208022218141    5.02531976067214   -3.11434806780047
H        -0.94439947431058    4.25053923223427   -1.72029531556042
H         1.25250030255806    1.47514734556685   -4.08147621668971
H         0.07515037906681    1.42144564604016   -2.77485683345070
H         1.31151076680962   -1.22223873612046   -1.02802137122870
H         0.14931676102606   -0.71775150832563   -2.26890840856092
H        -0.15326166094483   -0.08154814718698    0.26439289313110
H        -0.46572022905939    1.03331983692700   -0.93938133326333
H         2.32139512229464    1.76907029350157   -0.61991848121568
