35
 energy: -49.714844532204 gnorm: 0.120409639122 xtb: 6.4.1 (79825abcba525fcdf90b791dcacef51065a7a4e7)
C         3.68546499565986   -1.42597485205373   -2.69675760866774
C         3.11362045889011   -0.06972893741287   -3.08286026714905
N         4.07038362189066    1.05268901705381   -2.85777321495539
C         3.56387516436034    1.73696657184296   -1.87286619401031
C         3.90833428025166    3.14296360789032   -1.49646852044930
C         3.66881216977484    3.83802081090361   -2.84214561040885
N         4.49988978967432    4.61566639924089   -3.46200214438988
N         2.42842859436694    3.62902181880267   -3.42160900315498
C         1.20814324722602    3.00190979498059   -2.87797208041270
C        -0.07728469403196    3.79610314111719   -3.22663198886327
O         0.11914608641601    5.04506300807471   -2.56333706659510
C         1.03233153729231    1.49598018447592   -3.17383983109998
C         1.84261449794106    0.47082863219570   -2.32976788485521
C         0.87453697374417   -0.58505858662952   -1.71152471703314
N        -0.02181876599225   -0.00510021032419   -0.69925171482731
N         2.55548579402497    1.08086071013187   -1.18992916575142
H         4.75236518201502   -1.43580208769154   -2.94955217928469
H         3.04253516101988   -2.21168636508509   -3.10717291342809
H         3.56352108552602   -1.52954259850554   -1.61659508939256
H         3.06053375515834   -0.03521810432451   -4.17953944083082
H         4.97747085764111    3.24257262963109   -1.29228192204215
H         3.32630366320364    3.54557086535537   -0.66513119326951
H         5.31320243177770    4.93700949899843   -2.92213297765435
H         2.43263945706976    3.68266960530082   -4.44288749724174
H         1.26415710449030    2.99358234760135   -1.78099761566604
H        -0.96014293982484    3.24137518340249   -2.89276705194571
H        -0.12074309004303    3.87751372814303   -4.31997686030750
H         0.89161028888626    5.39831824981850   -3.04435375248779
H         0.91800181412741    1.24005946291833   -4.23567949362008
H         0.00919946836602    1.19851524710748   -2.90711853574888
H         1.49371925625003   -1.37739894553332   -1.29169926656589
H         0.21486529059598   -1.02994269476696   -2.46690018679028
H         0.52013124597936    0.28212230809786    0.11203734999679
H        -0.65518153340086   -0.77552339061053   -0.47949090382465
H         2.09537218701316    1.61310675011036   -0.45422331287795
