35
 energy: -49.723799562805 gnorm: 0.104944965936 xtb: 6.4.1 (79825abcba525fcdf90b791dcacef51065a7a4e7)
C         3.55738031128698   -1.28408465516494   -3.10818983000451
C         2.92138832288292    0.09233448513653   -3.23652127167439
N         4.01128793465348    1.06161316974789   -2.92267472463445
C         3.61266304217783    1.72002818352755   -1.87271459955008
C         4.17575598061199    3.05189538269234   -1.49033910218541
C         3.63083832322496    3.90692564107864   -2.64069130392650
N         4.22755693537070    4.92477601965483   -3.17693032541791
N         2.54459201856788    3.29478989999085   -3.24349195173681
C         1.23770402387467    2.95315468843983   -2.64915527025479
C         0.15798701739211    3.88372737250235   -3.25979219862543
O         0.18885073376281    5.27608673789055   -2.94542177917130
C         0.79066798143802    1.48342091827620   -2.81136783116756
C         1.79781556889626    0.46695374085409   -2.20112209475915
C         1.02868611310465   -0.80175240196680   -1.71829591180058
N         0.04804509386537   -0.39304245993175   -0.70055265416907
N         2.58474624085786    1.14159144623403   -1.14985572097846
H         3.68738864345991   -1.57383698046658   -2.05870467188563
H         4.57085337572428   -1.15460612371061   -3.50220726190082
H         3.10460367107017   -2.13571301825320   -3.62011765615652
H         2.52695324222809    0.27701039466097   -4.24500041354980
H         5.25460043445257    3.14344472822216   -1.63994024391369
H         3.90049423546183    3.45353058266737   -0.51315226220553
H         5.10690189434845    5.29008070195571   -2.79027481438995
H         2.39968364425328    3.65085612970914   -4.19118599175802
H         1.23502202826296    3.19509648428417   -1.57769978935682
H        -0.79467590785046    3.53657224574869   -2.84682215625483
H         0.02718544266903    3.78627588744553   -4.34483296811632
H         0.82878874940705    5.84586005263582   -3.41308079919771
H         0.61318844263549    1.12781773546672   -3.83514396684302
H        -0.16993431914479    1.39651210892113   -2.28590143477364
H         1.72748715432310   -1.54542963376306   -1.33611189170267
H         0.42990522227989   -1.28863449329298   -2.49809586401580
H         0.40894208738941   -0.10123771195551    0.20443346820805
H        -0.74659939326848   -1.03295736043476   -0.65534047571132
H         1.98644831076257    1.66469568154431   -0.51373071923390
