35
 energy: -49.730044901282 gnorm: 0.109827453442 xtb: 6.4.1 (79825abcba525fcdf90b791dcacef51065a7a4e7)
C         3.70158466381457   -1.42861613249887   -2.63821048981767
C         3.04679954966882   -0.10907725867644   -3.01973119902571
N         3.98465935723216    1.05119405237810   -3.01127734998044
C         3.68782302080136    1.73107227529505   -1.94147259762379
C         4.09171772256507    3.16381557522442   -1.79562801632488
C         3.49599086938050    3.90552689944808   -2.99824849639116
N         4.12466264512975    4.91671536052194   -3.51002433476251
N         2.28777066154776    3.49861145602833   -3.53920470139523
C         1.25478991620123    2.90951263029911   -2.66523652841048
C        -0.01543947440571    3.71847179317619   -3.03501243187642
O         0.18050246090386    5.11516286657874   -2.81296116318523
C         1.08736886181362    1.40402568692077   -2.96814048164613
C         1.90924751469495    0.42991489463687   -2.07619018412572
C         1.00997933404832   -0.68705918544345   -1.46138762298993
N        -0.25027846120342   -0.04928722731116   -1.04968482526586
N         2.75444425841379    1.14907884957070   -1.10253593503267
H         4.40724673647111   -1.68793585044719   -3.43637839468310
H         2.97846237193336   -2.24938394966410   -2.58745205312091
H         4.26123270607924   -1.36987522261855   -1.70242673456744
H         2.73289842443634   -0.30061727409081   -4.05486062263971
H         5.18059817327428    3.07280373082406   -1.76873291742147
H         3.74014239854000    3.52778525794735   -0.82821142602458
H         5.03226073887569    5.07240692142838   -3.05370930546952
H         2.00434824263392    4.16534539201719   -4.26103792030082
H         1.55626431937659    3.19117872603530   -1.64723000154943
H        -0.80747373780726    3.45631366792650   -2.32608194101960
H        -0.34537328213439    3.45060500573230   -4.04660049037754
H         1.04165894755984    5.36693443001126   -3.19752305207368
H         1.33401334692387    1.20114979081607   -4.01889167873422
H         0.01192620962549    1.22820596779674   -2.83053451205424
H         1.60225183249341   -1.04800064951922   -0.62092470980385
H         0.79733769360102   -1.50113646455260   -2.16547740025478
H        -0.06633808410745    0.40555004205440   -0.15879452051079
H        -1.01766488899557   -0.71406392863911   -0.93929871988567
H         2.31085053212696    1.72745939143450   -0.39193476068664
