35
 energy: -49.723201085413 gnorm: 0.117925770363 xtb: 6.4.1 (79825abcba525fcdf90b791dcacef51065a7a4e7)
C         3.73219898460882   -1.27838841037981   -3.05453703672066
C         2.96954810886695    0.03836158988444   -3.05035599172496
N         3.88220836542522    1.20236613603014   -2.85535172577507
C         3.59110262527694    1.74563018411862   -1.70863901140175
C         3.94405416566887    3.17855255591179   -1.46509509703708
C         3.66438211722877    3.82982774533012   -2.82485477410739
N         4.44131811306957    4.60022488522541   -3.51947950404885
N         2.47899504373879    3.46158039242331   -3.43907071475265
C         1.27654772239556    2.97215155680171   -2.73729667375032
C         0.13135972225342    3.85408026314002   -3.29888192413862
O         0.26243639453181    5.26280008969302   -3.10711827887336
C         0.94101650502809    1.46474574689159   -2.77495300492944
C         1.80746756656652    0.39430095196680   -2.05151528865146
C         0.97819662946746   -0.80788542302552   -1.50255797646334
N        -0.26822306988593   -0.34529787284655   -0.87251619671539
N         2.57127803397236    1.11802822469861   -1.01596262664969
H         4.66915211508720   -1.22403390148430   -3.62149566800091
H         3.08405117672227   -2.07627577925745   -3.43192574483848
H         4.18673466632705   -1.59182004830378   -2.11246189351617
H         2.75244226274550    0.16739484034781   -4.11943497785641
H         4.99262830648786    3.33493674340395   -1.19919398979858
H         3.27686566488910    3.62730582184922   -0.72654650774034
H         5.37390694866192    4.66145176691671   -3.09201383272686
H         2.42483093616676    3.74950654361732   -4.41890252103746
H         1.40975942258564    3.18433608310589   -1.66781444075261
H        -0.73163171952801    3.64768356861399   -2.65757562667029
H        -0.10868398785987    3.72005830432557   -4.36111374626624
H         1.16351881063712    5.57570714783077   -3.31449935197614
H         0.72686951056027    1.10795466707203   -3.79127548028622
H        -0.04934675635093    1.50133749046190   -2.30138513627688
H         1.60950253518279   -1.42680125777633   -0.86550273263593
H         0.71730076232988   -1.38312554298912   -2.39961586322835
H        -0.12236597923389    0.13873127560053    0.01000180655192
H        -0.95367531755954   -1.07366465953933   -0.66604072660885
H         1.99219580415118    1.55502141067752   -0.30185184892740
