35
 energy: -49.734025182063 gnorm: 0.093397130227 xtb: 6.4.1 (79825abcba525fcdf90b791dcacef51065a7a4e7)
C         3.66310571755888   -1.29298040712245   -2.69851337762774
C         3.10311152620770    0.05505955270175   -3.12825658354135
N         4.10305010013900    1.14789207243482   -2.95015005576965
C         3.71766429295469    1.76363109922686   -1.86979286085467
C         4.11326445731716    3.17807379618335   -1.58693718199642
C         3.60119676257130    3.83772163630187   -2.87300624169676
N         4.36779332879893    4.28846113266083   -3.81577261854314
N         2.27950508886072    3.68177267919356   -3.25617840170750
C         1.14880017894489    2.96821895486581   -2.63147490325030
C        -0.15564033746532    3.73912399825688   -2.96128118815178
O         0.05898354054943    5.13827718260451   -2.77485984600112
C         0.97367174646541    1.48820622643457   -3.03787850164728
C         1.85345571880932    0.46437941471028   -2.26476111076966
C         1.07159174797449   -0.69902370727354   -1.57957613487990
N        -0.04100600253091   -0.19295125386139   -0.76072395955613
N         2.63013262473067    1.18729819870155   -1.23825326301679
H         4.51820678808998   -1.45161936797536   -3.36628094545537
H         2.92390938995203   -2.05477280934749   -2.96759181911336
H         3.94453299773155   -1.37078290773891   -1.64632844943606
H         2.82133081373959   -0.00942563756302   -4.18804699266330
H         5.19524691541484    3.32206593156997   -1.52995145427449
H         3.61999727489113    3.59205448863124   -0.70530149606921
H         5.34456701084536    4.39976771997974   -3.51623700039660
H         2.32665616083524    3.92543044772597   -4.24830403254732
H         1.17604056872701    3.06259013915126   -1.53744020288344
H        -0.87962573447362    3.50374336231144   -2.17447199978188
H        -0.55590516706285    3.55900636038858   -3.96689792780146
H         0.41335074858939    5.58919869758250   -3.56477182157396
H         1.19778666185184    1.45880366724137   -4.11257762415515
H        -0.07446623293020    1.18726921069457   -2.90646862088680
H         1.80289681323344   -1.31678716431190   -1.05899514099563
H         0.63118255418207   -1.30995701550713   -2.37737369072458
H         0.33775932543478    0.29725455919987    0.04589343692734
H        -0.63647937697618   -0.96233155374639   -0.45014305455448
H         2.13862268264946    1.67424466160617   -0.49155747194287
