35
 energy: -49.719362677572 gnorm: 0.119110048866 xtb: 6.4.1 (79825abcba525fcdf90b791dcacef51065a7a4e7)
C         3.35332503502953   -1.34918832499567   -2.64932462945573
C         2.85153030649838    0.03488672324041   -3.03406185316698
N         3.98006371185940    1.01048197442484   -3.01151730898366
C         3.79846915664613    1.81550874004799   -2.00464901899567
C         4.36643503680875    3.19594957652420   -1.91002970879940
C         3.82680978009283    3.75728630726122   -3.23102474293542
N         4.52019719485346    3.96811361821834   -4.30545973834704
N         2.45326736172464    3.62779595269376   -3.35195171671030
C         1.35852882131390    3.27800154824632   -2.42615563450810
C         0.33045469605764    4.40256414443262   -2.71434720186445
O        -0.73200338733220    4.43370237292690   -1.76111103714891
C         0.93597821316671    1.80837931502168   -2.64509167808918
C         1.88702468325090    0.74947396245523   -2.01725274909874
C         0.92432561838858   -0.17066261648157   -1.20432241502073
N        -0.04683271284115   -0.90533637247909   -2.02991791526177
N         2.88191273691836    1.32607467599514   -1.09135518215224
H         3.20466917300382   -1.57145985036319   -1.58594582717302
H         4.41876202544192   -1.37790131654281   -2.90064446785779
H         2.89051505123093   -2.06097568072482   -3.33599292020091
H         2.51379043308812    0.09349991208643   -4.07771441768592
H         5.45078300585295    3.32063193426746   -1.85248902417038
H         3.86523951626269    3.71116791780433   -1.08824681473480
H         5.51454991436585    3.78285980060669   -4.12341232107630
H         2.16988583297442    3.57887236173993   -4.33338280981891
H         1.68262190060482    3.50704335538975   -1.40191767240397
H        -0.13794671661826    4.33561471820740   -3.70163919364117
H         0.80106054254478    5.37614118968534   -2.52834397146012
H        -1.18516582398805    3.56956944721610   -1.78913518637281
H         0.87003722753370    1.73343397798080   -3.73875761500395
H        -0.08635860962742    1.60795534578148   -2.29712255985773
H         0.28732610329260    0.43861371644871   -0.56365298177038
H         1.59580361385722   -0.83211857076235   -0.64282973570591
H        -0.43790467059276   -1.67789555399847   -1.49642792409932
H         0.41863063941644   -1.27352788150968   -2.86104604184737
H         2.47234120837070    1.99970955136165   -0.44736705656103
