35
 energy: -49.721353192968 gnorm: 0.104762340043 xtb: 6.4.1 (79825abcba525fcdf90b791dcacef51065a7a4e7)
C         3.69323837035512   -1.48142423084223   -2.41863365941548
C         3.02699490450635   -0.23536089318607   -2.98337276643964
N         4.01837690587830    0.86525097094402   -3.16141004069601
C         3.79858983795085    1.67228695313993   -2.16380540943127
C         4.37517221861906    3.05208213548870   -2.13425941332254
C         3.60968907669031    3.74393196847764   -3.26858809957704
N         4.08208722049609    4.43817603235835   -4.25576082290582
N         2.22638024391978    3.69180272415264   -3.22676613076243
C         1.21352924740717    2.91718661803284   -2.48379253871899
C        -0.14254526643189    3.61043098042706   -2.77552190138319
O        -0.38727186441833    4.84245630979591   -2.09679630137586
C         1.27278817797001    1.49254735340939   -3.07806767380475
C         1.96849767027236    0.51180549609649   -2.09110999693352
C         0.89256772683392   -0.32133915718810   -1.32786604263751
N        -0.09449053744987    0.54313059400266   -0.66235119271651
N         2.92383137069133    1.20106523407473   -1.20126984128929
H         4.06874564014716   -1.28730593518364   -1.40690738193290
H         4.62528236895942   -1.76440819072877   -2.91898967768251
H         3.11391066189510   -2.40631404228099   -2.45477102870991
H         2.52296967091307   -0.44773984016108   -3.93603649414137
H         5.44001114450926    3.07658750223009   -2.37958509528585
H         4.22460719814861    3.55234179966982   -1.17559135614788
H         5.07646178056353    4.69226475127232   -4.30919971987936
H         1.81118465121978    4.06762655435061   -4.08249662406895
H         1.53847842174808    2.98835955985242   -1.43693899265685
H        -0.92666594249002    2.88601328669386   -2.53261992336984
H        -0.13686415738547    3.75921361908683   -3.86260551678684
H         0.31512197584341    5.46626068262645   -2.36208531171604
H         1.78749496649337    1.53749548784469   -4.04715323060169
H         0.27444657408668    1.21271353697646   -3.44060313387522
H         1.45284798283189   -0.94290089430793   -0.62987577650966
H         0.47073030247090   -0.98614703234819   -2.09191080121801
H        -0.48935275362182    1.07985020748042   -1.43073418867676
H        -0.89194778723454    0.01491552945160   -0.30451622180468
H         2.63971862130484    1.81857598385765   -0.44350080981550
