35
 energy: -49.718214415828 gnorm: 0.102191756235 xtb: 6.4.1 (79825abcba525fcdf90b791dcacef51065a7a4e7)
C         3.33604622143441   -1.55130632756818   -2.71942968617635
C         3.03389781913053   -0.10414099753710   -3.07985062479290
N         4.18390472277917    0.84548744542749   -3.04020324827521
C         4.01124994030826    1.66745687650197   -2.04552491658894
C         4.52639768794253    3.06544570301443   -1.91359703321089
C         3.73374370052886    3.76901410320874   -3.02175468810698
N         4.22943567431282    4.05922455294247   -4.18352582960297
N         2.45715514340717    4.14214794341171   -2.63561653924585
C         1.33613405971134    3.20961169134122   -2.40847150930536
C         0.09291475189098    3.95898887197274   -2.95388092433225
O        -1.08598278463433    3.52956702315508   -2.27252680758368
C         1.46727724044692    1.84042208790518   -3.11160223457347
C         1.96271209321245    0.66459231521567   -2.22170320225202
C         0.88080469806511   -0.27085991585359   -1.59824351892424
N        -0.15612093579164    0.40475177383228   -0.80273361527887
N         2.92035915773834    1.28562592037116   -1.28533454766510
H         3.30864225839329   -1.70432346866470   -1.63402080167953
H         4.27476515687207   -1.80303360032615   -3.22399109445364
H         2.61751934240650   -2.22419040246927   -3.19196942393906
H         2.77684577776556   -0.17640309877940   -4.14541002668079
H         5.59602018120047    3.25431890559893   -2.03566982852845
H         4.10056576863195    3.45605971281478   -0.98728073478141
H         5.21262491458469    3.76019403268077   -4.17269809985178
H         2.20919540150564    4.90935177660251   -3.26475869976508
H         1.28325308644447    3.14320197853140   -1.31332163812957
H        -0.06511928517624    3.67773766215044   -4.00008864604743
H         0.21230839210337    5.04923924694023   -2.92196534746063
H        -1.10600087468577    3.70260851570139   -1.31204610642036
H         2.17606638271455    1.91263265310440   -3.94734967453860
H         0.45194552365792    1.58864229315709   -3.44646534161841
H         1.30645019061750   -0.96795852253813   -0.87690949064316
H         0.46880878900831   -0.80953713766128   -2.46066273840586
H        -0.96586520900657   -0.19787751773938   -0.67803927116611
H        -0.47292058647270    1.23253651562377   -1.31008505237129
H         2.63131979637294    1.90854019859377   -0.53387762050368
