35
 energy: -49.715539919110 gnorm: 0.123776786018 xtb: 6.4.1 (79825abcba525fcdf90b791dcacef51065a7a4e7)
C         3.50823189986705   -1.42029872393923   -2.79723929538246
C         3.05082283842816   -0.01024201581363   -3.14075270105622
N         4.04884478172382    1.07494119367501   -2.91225414601217
C         3.65415564805537    1.69525509984235   -1.83788942163403
C         4.06147991562482    3.11021977788283   -1.57498861094958
C         3.64135892780477    3.82184352271995   -2.86665892520365
N         4.23760006816357    4.81015774209216   -3.45604532041920
N         2.41513465148508    3.46847260300618   -3.40472293548909
C         1.23572378457022    2.93110230160161   -2.69893957222235
C         0.00072555591884    3.73842156129469   -3.17606305406077
O         0.10926200628932    5.13818464443577   -2.91658453145169
C         1.03203434062878    1.44364502586762   -3.06260560474359
C         1.82626286326534    0.39038194203519   -2.23811207163201
C         1.05674937381910   -0.74255920013796   -1.49072336155471
N        -0.02185270712888   -0.00742723646210   -0.81197412880960
N         2.56615544200776    1.13048422288156   -1.19678382306334
H         4.49762438368223   -1.59901405171911   -3.23477903395126
H         2.82408813298532   -2.18286532613000   -3.18399704649024
H         3.78251127872044   -1.48705784441462   -1.74241148700161
H         2.88613298413595    0.01546490317509   -4.22653850534547
H         5.14240422617299    3.18029915028040   -1.42884262262600
H         3.49060101746349    3.42168477377619   -0.69802747137692
H         5.10790871184305    4.95526115625337   -2.92906767568904
H         2.12406825923645    4.09966496390884   -4.15491101990284
H         1.35946353105896    3.18023750658765   -1.63631075637541
H        -0.99675667077008    3.42817449642667   -2.84833824325855
H         0.10137239481003    3.68198187664556   -4.26721112443848
H         1.01006546394791    5.45357633719935   -2.71177127602927
H         1.37928901177628    1.23455949415465   -4.08327579743936
H        -0.03260212259833    1.19958842962470   -3.17840901192956
H         1.74773019311386   -1.22157346930196   -0.79751762800703
H         0.56731240754514   -1.41394777550746   -2.20722146779813
H         0.22415542647436    0.51014002811707    0.02826432560375
H        -0.81636737897569   -0.58141561912542   -0.52513121680732
H         2.04132542107413    1.58159433195832   -0.45025412385055
