35
 energy: -49.729393735702 gnorm: 0.108960120470 xtb: 6.4.1 (79825abcba525fcdf90b791dcacef51065a7a4e7)
C         3.42630953437073   -1.29022830258080   -2.54441206411084
C         2.58516690960720   -0.10028723200928   -2.98259441498700
N         3.65440965345026    0.86641403145595   -3.36741986555120
C         3.78185498403471    1.61873050739251   -2.31261845380949
C         4.51376689610853    2.92266020626704   -2.34765006418408
C         3.58983748203531    3.82301009072338   -3.17653286749406
N         3.93560373739256    5.00184939140171   -3.58936260416760
N         2.32518779397710    3.36799210112175   -3.51064306363472
C         1.24561626631581    3.07769952323381   -2.54723116133435
C         0.03545465306106    3.90594544409286   -3.05136348178137
O         0.26895205979855    5.28903469791964   -2.78492580778465
C         0.75960484438910    1.62054752516083   -2.38360821980195
C         1.84003911061081    0.65354142432976   -1.82012561070908
C         1.14794226751874   -0.30651857014393   -0.80347261949416
N        -0.01851182043841   -1.02702980741601   -1.33709268824870
N         3.01310181430713    1.30626584769141   -1.20577095893816
H         4.11779224554922   -0.83321631009221   -1.82658939477674
H         3.97158710833055   -1.58877609037675   -3.44590175763068
H         2.89448867627686   -2.10700531854469   -2.05208133892449
H         1.95608758846387   -0.16726194314544   -3.88064118799141
H         5.42758055910199    2.81793095324774   -2.93811048609124
H         4.73737719797275    3.39150113459829   -1.38735812787754
H         4.87959707772353    5.35031192834743   -3.38044159232418
H         2.05588080065612    3.81635133786881   -4.38947941523492
H         1.52821281810016    3.41526996794962   -1.54087870480508
H        -0.81535290521745    3.63796675100077   -2.41658673716061
H        -0.13406325921623    3.69268021293957   -4.11423739088201
H         1.19530210557771    5.46011619870387   -3.04080463437894
H         0.33623922086320    1.26102243228738   -3.33101174909350
H        -0.02422500068974    1.63093750510871   -1.61423985135993
H         0.80473607579307    0.24992173802427    0.06832268168609
H         1.99236989354323   -0.92687897397708   -0.47824091678044
H         0.28420033903569   -1.60969331164307   -2.11379412722058
H        -0.44476665667772   -1.58089787519166   -0.59242359339063
H         2.74301976973910    2.01525043469950   -0.52705892683631
