35
 energy: -49.723245409533 gnorm: 0.104144898214 xtb: 6.4.1 (79825abcba525fcdf90b791dcacef51065a7a4e7)
C         3.63853929518921   -1.54393205424208   -2.54187589985450
C         3.11877542492853   -0.20903323006460   -3.05507672829110
N         4.12321048873188    0.89410874583672   -3.04671108975685
C         3.73584559492206    1.65948212601655   -2.06743562329795
C         4.17440418890792    3.06430413744724   -1.80042176682083
C         3.46991091946585    3.97284014082619   -2.81510090906170
N         4.05557750041290    5.00313234359332   -3.33963636814008
N         2.31089723985451    3.53282156702008   -3.43241833322033
C         1.16172487856657    2.92340416009184   -2.73533849819453
C        -0.13796343365988    3.72373086288596   -3.00905235790017
O         0.06934509931090    5.13613718917799   -2.98502130826319
C         1.07612055347056    1.41740204161556   -3.06835659637262
C         1.92780375359189    0.41471451878251   -2.23817278908184
C         0.94505118768712   -0.60295585097702   -1.58026627396596
N        -0.01212095780365    0.16016130886734   -0.76419295224125
N         2.75901073000503    1.12530798182440   -1.24635181519015
H         4.46763713451663   -1.69708290439465   -3.24288893544708
H         2.87499185949670   -2.31835880154803   -2.66994075442326
H         3.97173555780903   -1.50327616225912   -1.50280178595018
H         2.79923380122596   -0.34575850939402   -4.09714859308406
H         5.22791661720841    3.30142882117815   -1.96939095874652
H         3.93541563545457    3.39907772663743   -0.78909337691999
H         4.90984447479012    5.26181910560846   -2.83021840370048
H         2.06671052502283    4.02403625048774   -4.29554438460506
H         1.34425984286098    3.09593154217649   -1.66600451123166
H        -0.83926002802127    3.51696691504613   -2.19415398951927
H        -0.58878935458169    3.37642579992929   -3.94716456016583
H         1.00857258809488    5.40156522007190   -3.00135969901148
H         1.52103513858074    1.38588063592204   -4.07191408652728
H         0.07976092411623    0.96437138123362   -3.16031080447482
H         1.60738803384177   -1.15911545662771   -0.91736374295634
H         0.40706874028115   -1.10529826698995   -2.39384337172825
H         0.38912529425154    0.13916794382991    0.17012886864755
H        -0.94621130905094   -0.24928885664903   -0.71108115086793
H         2.26802764203727    1.55329536436326   -0.46403737265983
