35
 energy: -49.722489841108 gnorm: 0.113228501408 xtb: 6.4.1 (79825abcba525fcdf90b791dcacef51065a7a4e7)
C         3.70821036223547   -1.33062268932636   -2.59301474955812
C         3.10442628641811   -0.03399322787329   -3.11232322121917
N         4.05800429985679    1.10382155214774   -2.96417291525307
C         3.69796569540110    1.73750934664737   -1.88545125434937
C         4.16620630475329    3.15101548847941   -1.74436235735213
C         3.65579936324654    3.87958263858069   -2.99336069946165
N         4.23659068877293    4.80885362503997   -3.68530121266623
N         2.39858876587839    3.49892262248946   -3.43214232397613
C         1.26790916841179    2.91232746813394   -2.68690628804359
C        -0.01225290200392    3.73179816189342   -2.99396442168197
O         0.11416006328342    5.11128430157936   -2.64830026155431
C         0.90913472407923    1.42751542167349   -2.91687504599591
C         1.89441594483969    0.44135169322738   -2.22647390438651
C         0.99236342613663   -0.65673048509681   -1.58241384457050
N        -0.29923779919117   -0.19895447832054   -1.04696134628305
N         2.62455479221437    1.20420616296954   -1.19472428297985
H         4.72355309710751   -1.42138208022101   -2.99689536236254
H         3.03895687477155   -2.17152670352206   -2.80306782039372
H         3.73534333681676   -1.22307091643386   -1.50671640636925
H         2.95805314824503   -0.13329075024145   -4.19649540652905
H         5.24905717850988    3.19261765654851   -1.60163750290261
H         3.68814393299271    3.40485004246152   -0.79620709741247
H         5.19883600967672    5.05817466789549   -3.42430213481776
H         2.23216927372129    3.64943607435373   -4.42991777338988
H         1.55513276948542    3.08905059708086   -1.64152050612970
H        -0.80261884405653    3.37172153651898   -2.32741052221458
H        -0.29455652272686    3.55331231469781   -4.03912794945171
H         0.67928348848497    5.48525442635965   -3.35090194229872
H         0.79715380214063    0.98736398413122   -3.91677363682381
H        -0.08911568961395    1.33486795216034   -2.46816863547015
H         1.63706115299101   -1.08757265844732   -0.81678780637032
H         0.67932478609422   -1.47301161823645   -2.24526573606821
H        -0.12020972635374    0.57709782961504   -0.41443600808192
H        -0.76528859270493   -0.95025696544383   -0.53575070816660
H         2.16592244154015    1.62287806912078   -0.38811180811501
