35
 energy: -49.718994950337 gnorm: 0.113913844386 xtb: 6.4.1 (79825abcba525fcdf90b791dcacef51065a7a4e7)
C         3.65100508906821   -1.35657509152353   -2.85966406018611
C         3.11418449964999    0.04740665429377   -3.09660989977423
N         4.11938711633982    1.06843916290057   -2.68074657429528
C         3.69602360614327    1.78247268144367   -1.67787673918698
C         4.06266831823068    3.21778935256988   -1.47149680543718
C         3.70286486768008    3.66816283685439   -2.89242165279698
N         4.57408092996365    4.15958935888779   -3.71651349813215
N         2.38623108883056    3.62588966588678   -3.31985389909318
C         1.18465769692414    2.98129093558228   -2.75538881034397
C         0.03175115349907    3.89282026898693   -3.24991142446982
O        -0.15551915972715    5.00364180133523   -2.37272768580558
C         0.93962053936273    1.49979268623745   -3.11786813710803
C         1.84668843921760    0.53444410275344   -2.30222017030537
C         0.96279361072344   -0.59841753287847   -1.69423087394372
N        -0.15259968688854   -0.12345267646193   -0.86067935343566
N         2.51342629239677    1.25013369438598   -1.19641459480135
H         4.65891689477139   -1.22805411838380   -3.27182159985320
H         3.02311278464604   -2.06952882518591   -3.40426510910906
H         3.82842068813784   -1.42973641684082   -1.78471346112306
H         3.04532983544962    0.26460227330672   -4.17122588082756
H         5.14256342464211    3.27222160781148   -1.31171309139485
H         3.39806343585051    3.70865284899144   -0.75782504059437
H         5.52308652937574    4.19875478894669   -3.32401889992347
H         2.44457063566169    3.63886956635547   -4.34080131383821
H         1.18192862816785    3.06048102253716   -1.65981527487228
H        -0.83978030585886    3.24711031525735   -3.10118626859603
H         0.19106454776164    4.03866040620790   -4.32567590959726
H         0.45620323362746    5.75353308377378   -2.50050106703408
H         0.99917222358454    1.43735584548871   -4.21268567233359
H        -0.06731182939843    1.24398790262692   -2.76139094570738
H         1.66200077313319   -1.28717076520334   -1.22076314979720
H         0.49942133576910   -1.12530503674135   -2.53765034124283
H         0.12928986091536    0.03552999147559    0.10350907680434
H        -0.81040867200261   -0.89174851682288   -0.71924412166002
H         1.97771672734927    1.72706037456353   -0.47405064092396
