35
 energy: -49.720462072163 gnorm: 0.121027087603 xtb: 6.4.1 (79825abcba525fcdf90b791dcacef51065a7a4e7)
C         3.61372858734121   -1.48002086298689   -2.66496852070088
C         3.10494021453641   -0.13031541916114   -3.14964786455364
N         4.09340462793365    0.97663880710029   -2.99644061752626
C         3.79859000461977    1.62953673349861   -1.90940930898349
C         4.22047017500006    3.04803152759595   -1.69251168053208
C         3.59187216337302    3.89368296394688   -2.80654057352729
N         4.32840856438055    4.59980807509763   -3.60563147443932
N         2.22475205228060    3.89012993819259   -3.02785441992530
C         1.17951069012101    2.90781089944225   -2.68082880034325
C        -0.12362372239067    3.69420336861125   -2.97757690320071
O        -0.25094865032331    5.06407367914172   -2.59588376480807
C         1.12484747751470    1.47828613637574   -3.26370308047978
C         1.89781747456809    0.48457495512208   -2.34991580001452
C         0.96191421657779   -0.54780371925841   -1.64807824209038
N         0.00965265837740    0.14038144931962   -0.76258341660289
N         2.68974937997534    1.10529545529815   -1.26958858788686
H         4.52114692678778   -1.86292794476938   -3.14689362557183
H         2.89679837876497   -2.26830455784626   -2.91747986113648
H         3.79996947226199   -1.44406575800208   -1.58962242131547
H         2.99568610810961   -0.25810228922242   -4.23521153661938
H         5.30047729076602    3.21494640123887   -1.67273310807069
H         3.96748082027424    3.41391937902485   -0.69546781740697
H         5.30548698350535    4.66729447521847   -3.29424600030024
H         1.99319149923791    4.26897186776626   -3.94913836364406
H         1.29296579028471    2.97860827819011   -1.59056480901953
H        -0.96629907068330    3.15285269830140   -2.53546231738715
H        -0.09857918339979    3.62007979190556   -4.07201639759374
H         0.62544792147318    5.48543845555517   -2.68101915604900
H         1.65985226929080    1.55244275669383   -4.21991481767829
H         0.10054362801230    1.12061285243608   -3.43486475465954
H         1.57322919185677   -1.17883773253803   -1.00345940468448
H         0.53218039213762   -1.10745447716385   -2.48819763126088
H        -0.19108508208725   -0.42431478682568    0.05913372497863
H        -0.91301019991665    0.27520420447703   -1.17913012668659
H         2.22678882504260    1.66063338429941   -0.55298493242522
