35
 energy: -49.724488717896 gnorm: 0.105239278137 xtb: 6.4.1 (79825abcba525fcdf90b791dcacef51065a7a4e7)
C         3.16659062442273   -1.51344337754867   -2.42733974764342
C         2.74330106159041   -0.14694916425901   -2.94599567105986
N         3.90293487102527    0.74997447217588   -3.22287005101626
C         3.90806980106824    1.67488405511583   -2.30671268999681
C         4.52764360138379    3.03362039897842   -2.39108553740258
C         3.60595358825226    3.89225803195467   -3.26547168241547
N         4.01513279787123    4.98947055960120   -3.82075706750514
N         2.29138284453496    3.52833014795590   -3.50520093292308
C         1.23234339302060    3.09575610604503   -2.57288010171629
C        -0.03848945005901    3.88575040537602   -2.97972741879569
O        -0.05865955338377    5.24898182109481   -2.55588872871337
C         0.92596366298087    1.58214475193987   -2.61007800554563
C         1.90048612593501    0.62534193284958   -1.86523839649448
C         1.22504402903264   -0.23370638553985   -0.75163589511081
N         0.01108850681934   -0.89757990422922   -1.25172181321185
N         2.98756457672731    1.44839051018526   -1.29919207331429
H         3.69316864886950   -1.58197389599524   -1.46801872058734
H         3.84654840425616   -1.98008283323878   -3.14778899669032
H         2.27709131506248   -2.14639287479120   -2.40467736904092
H         2.20488119045441   -0.28942443773917   -3.89284268359428
H         5.50912002491200    2.92112089872669   -2.85875532978703
H         4.72995608590813    3.51999107707835   -1.43479728667048
H         4.98097784526275    5.31099276153451   -3.67946170256520
H         2.04352567382203    3.94086718780780   -4.40757869075347
H         1.59746474807145    3.46199445924258   -1.60380024908414
H        -0.91695054139918    3.49367935935111   -2.45702864841120
H        -0.23830096327459    3.90252348301862   -4.05848288452140
H         0.83299709557912    5.63256873734262   -2.65921713311230
H         0.77569016385039    1.19342752155932   -3.62614247512501
H        -0.06961250465248    1.45506183322395   -2.16386851640159
H         0.81132755374702    0.29290692000952    0.10799220092657
H         1.89786132159268   -0.99749069807154   -0.34220809583671
H         0.38820583364239   -1.41263413820672   -2.04349084566074
H        -0.18961899948269   -1.61229987622616   -0.55037528868356
H         2.78286642859452    2.00797374598899   -0.47383230318240
