35
 energy: -49.724302300135 gnorm: 0.114629675320 xtb: 6.4.1 (79825abcba525fcdf90b791dcacef51065a7a4e7)
C         3.40595818284828   -1.50111466808761   -2.76896594526880
C         2.99337258126184   -0.07475126463936   -3.10174963313443
N         4.12611642569423    0.88332298608044   -2.94405660753107
C         3.82010433164514    1.61575378992785   -1.91219901122565
C         4.39576411308987    2.97677662856572   -1.68114160270914
C         3.62240171395138    3.91175928730337   -2.61871302541138
N         3.96921553923100    5.12805655712253   -2.90153081574448
N         2.51415411289482    3.40381943840131   -3.27582350255381
C         1.21494128885460    2.93834334953176   -2.75305682089788
C         0.03469145187984    3.71614534443236   -3.39076066440513
O         0.01293023902506    5.09196990385573   -3.00986805266416
C         0.98571052823867    1.46645866654856   -3.16205592649881
C         1.81405516536438    0.51967911960701   -2.24695741504000
C         1.04752816901218   -0.61173566741165   -1.49420682256303
N         0.00789830875281    0.04070451011564   -0.68303881752963
N         2.68008052484076    1.18805678063667   -1.25558045327506
H         4.14525617347895   -1.73664904415253   -3.54371733796363
H         2.59041830710616   -2.20554377595276   -2.96343038421397
H         3.71339495299471   -1.54601795009889   -1.72215460223220
H         2.68782892259313    0.03482609749875   -4.15120200735510
H         5.45412286170314    2.95574105501631   -1.95335729632165
H         4.25480096072903    3.36419877432231   -0.67019776286659
H         4.89046747698935    5.33125562988943   -2.49385132430823
H         2.38369730091603    4.08821836744990   -4.02447878554831
H         1.17482330932500    3.04832509649170   -1.66087806477926
H        -0.89027859970933    3.29723171817463   -2.98140828765095
H        -0.02257005049656    3.54931587568346   -4.47372343741855
H         0.89329395310423    5.51063802643331   -3.06030605693277
H         1.13247076752369    1.22969313254741   -4.22435235598601
H        -0.07371069109031    1.27311050121300   -2.94602807457940
H         1.67308898502752   -1.14261676422838   -0.77707205834451
H         0.67532164782685   -1.33900571257822   -2.22647813982285
H        -0.35151937223983   -0.48992321254935    0.10667612142261
H        -0.70639882184880    0.11844727937264   -1.40880100893747
H         2.21884181157898    1.71538416144077   -0.51704261346745
