35
 energy: -49.728079423325 gnorm: 0.108579118542 xtb: 6.4.1 (79825abcba525fcdf90b791dcacef51065a7a4e7)
C         3.38198466971626   -1.49374024274565   -2.77598502224057
C         2.90996457962231   -0.09744944695261   -3.15420912843032
N         4.03328572209114    0.88267545528543   -3.09601305248036
C         3.81440127601556    1.59474805236450   -2.02836580414838
C         4.40711707874260    2.95739485988257   -1.85796446096515
C         3.78954988991865    3.85010007076654   -2.94102051304738
N         4.44391161541507    4.85176165511041   -3.43914663929700
N         2.62806348484629    3.39110165449153   -3.53958518741017
C         1.35336021986267    3.11831907104984   -2.84775554659611
C         0.23423970421219    4.08878379568391   -3.30644859526029
O        -0.64502796033916    4.38148901486445   -2.22032798248222
C         0.94551126172963    1.63317532599976   -2.96724954758403
C         1.79978542387651    0.55060490588951   -2.24738246717473
C         0.88773718043205   -0.45987146046808   -1.48488521611396
N         0.05976201914970    0.25404803304165   -0.50036601245977
N         2.68076286814187    1.26912000952565   -1.30548452624426
H         3.54174398601353   -1.62763382783639   -1.69949668308164
H         4.32740217990587   -1.69724588210618   -3.28970991272117
H         2.72011210386818   -2.29302673618946   -3.11571059826956
H         2.58116486785040   -0.05457057323930   -4.20147536314934
H         5.46666263583929    2.83979063994795   -2.09921042865264
H         4.13620732976256    3.38574834536824   -0.89096124807043
H         5.38250478099566    4.98460579779550   -3.04216695228035
H         2.36536270361046    4.04351392271077   -4.28204875691383
H         1.56177470331355    3.37040953718289   -1.79914995230539
H        -0.42125463203453    3.76945461320140   -4.12313925493623
H         0.70065444732345    5.06997837631493   -3.46018152409960
H        -0.90909548810393    3.53984210018112   -1.80227765975064
H         0.89953731718969    1.32168726140829   -4.01935780620301
H        -0.08304350471291    1.50508563418682   -2.60380354702065
H         1.58957724647906   -1.10986727965357   -0.96299507630303
H         0.17136181389443   -1.00527298963285   -2.11180164139043
H         0.64725649936128    0.38442556611056    0.31954158794484
H        -0.81959799417462   -0.25332324588083   -0.38948121974029
H         2.23018718411733    1.96342315063778   -0.71288163418878
