35
 energy: -49.722829678827 gnorm: 0.110356916391 xtb: 6.4.1 (79825abcba525fcdf90b791dcacef51065a7a4e7)
C         3.41774844144069   -1.51095149849532   -2.33906916773848
C         3.01284407621137   -0.20669191399211   -3.01022030593287
N         4.15008183979593    0.75800382238231   -3.05420228040228
C         3.97630458119897    1.59988142515572   -2.07651522302960
C         4.36432539347520    3.03824611026966   -2.20956329054782
C         3.75207932170832    3.81534422282267   -3.38114146635645
N         4.41501095423135    4.69702374059017   -4.06144115259668
N         2.37578130236239    3.76411199447027   -3.52670531769526
C         1.32337289673331    3.07891832133354   -2.75155814717394
C         0.05213368749904    3.90087810862188   -3.08766054932402
O        -0.90344692010793    3.49070977786767   -2.10935915868643
C         1.15478558556241    1.57004848700596   -3.03644701778547
C         1.95042030451608    0.57052426453257   -2.14882749407361
C         0.95239334392040   -0.23826634502966   -1.26333525127083
N         0.23785022302772    0.68394230951881   -0.36697521851069
N         2.89095001033356    1.29790349786521   -1.27368163093329
H         3.81103993006761   -1.26869298426509   -1.34462947526566
H         4.15183187720163   -2.06371352442459   -2.93465101483836
H         2.54840681755294   -2.17108921371376   -2.31059094963240
H         2.71426646188273   -0.40966138508472   -4.04770246208929
H         5.44759865803770    2.99501205599798   -2.34854887029775
H         4.27047747453515    3.59311796838780   -1.27399727098107
H         5.41428920997380    4.55993277779136   -3.86434574435429
H         2.06564144142565    4.49885787944697   -4.16691414304401
H         1.48821056023988    3.25906757678497   -1.68060778816105
H        -0.22690235135209    3.76267121671132   -4.13726301706892
H         0.23895469798152    4.95761955418552   -2.85893634495201
H        -1.78318293764922    3.90248519653649   -2.20617240796172
H         1.28012113881129    1.35423142769438   -4.10592548954951
H         0.08076368349562    1.34529776878213   -2.98757023253397
H         1.46209973086140   -0.93998912065247   -0.60361719960775
H         0.30364611348346   -0.89508943830944   -1.85611781228660
H        -0.14742694646850    1.47205525173794   -0.88159744135569
H        -0.53512114927846    0.17328513793294    0.06283822700267
H         2.45402524866692    2.01344465075443   -0.69631597575840
