35
 energy: -49.720538917854 gnorm: 0.113903825821 xtb: 6.4.1 (79825abcba525fcdf90b791dcacef51065a7a4e7)
C         3.74759934823617   -1.47579099771496   -2.54630859910080
C         3.15215250050153   -0.14228418873606   -2.97372769964972
N         4.08417598483278    1.01592458710928   -2.84816231019456
C         3.66285878221025    1.68549166058570   -1.81423766054269
C         4.04228905531217    3.11729276704635   -1.60655230570080
C         3.63485716835941    3.94475806396299   -2.83155134026645
N         4.49124006552134    4.63275264123863   -3.51924066386741
N         2.34194893452673    3.77467614824711   -3.29788844340890
C         1.28548977965536    2.90930997808128   -2.73847586622579
C        -0.02688747233874    3.69317563509338   -2.99896085641739
O         0.03484679434001    5.05189355993344   -2.56477144517901
C         1.15178844124433    1.43942520017480   -3.19436427533645
C         1.87891034408657    0.43643278893630   -2.25348613701279
C         0.84675984483109   -0.58308639150722   -1.67942816102048
N        -0.37320729758629    0.14582798315712   -1.29881551203963
N         2.57829149135758    1.13378736092140   -1.15616231453373
H         4.44637180502677   -1.73717296383465   -3.34984715237344
H         3.01523320798146   -2.28465029663833   -2.63865875591059
H         4.30466429640714   -1.48413210617969   -1.60718308414581
H         2.82596184126962   -0.07765372514741   -4.02069331059868
H         5.12864469172267    3.07507684916779   -1.71931935579504
H         3.79659757737851    3.43823767298892   -0.59235111439885
H         5.45658221360720    4.52569263038207   -3.18330874056682
H         2.25544144364068    3.95222651624738   -4.30133147537581
H         1.41899723371967    3.02709179778985   -1.65456484483241
H        -0.82346071021461    3.30061501335406   -2.35865246669637
H        -0.30767380083437    3.65117575278870   -4.05882612178074
H         0.71990827681313    5.47795328180053   -3.11434504392918
H         1.48247376914241    1.48071029646568   -4.24079294930671
H         0.08538930158200    1.19468200328591   -3.29089674976558
H         1.27550906957228   -1.07905452083254   -0.80900695270258
H         0.47233281577385   -1.39002248272263   -2.32156463313289
H        -0.25092473042573    0.68649985352099   -0.44610369568559
H        -1.09154327838700   -0.55149011437729   -1.09698395525450
H         2.03404864757189    1.60210403883049   -0.43454420040049
