35
 energy: -49.713702205105 gnorm: 0.117725441683 xtb: 6.4.1 (79825abcba525fcdf90b791dcacef51065a7a4e7)
C         3.74237943297649   -1.30384015922107   -2.69077394885541
C         3.06303570231894   -0.00880541626370   -3.11132302052589
N         4.00282145482878    1.07446642010328   -2.69997541420770
C         3.54224076064800    1.70905278434120   -1.66074782592492
C         4.01151606447045    3.11497270639037   -1.45993753030028
C         3.63497278800860    3.70899847012635   -2.82253457912765
N         4.31898669104124    4.30652610945653   -3.74705093109835
N         2.27376897499206    3.76848497321963   -3.07071869359369
C         1.09666505479391    3.00852997870179   -2.60725163607447
C        -0.02079387433231    3.90700064560466   -3.19773263695026
O         0.06328935820181    5.31752765840859   -2.99330784589200
C         1.00835267914453    1.56265582725223   -3.14383374630064
C         1.78533285253761    0.48339332079604   -2.33671177009012
C         0.78521641300369   -0.63692608247575   -1.91368925163614
N         0.41782724308008   -0.27110905877205   -0.53684319202579
N         2.41463008136663    1.09284630115371   -1.14838985653370
H         4.83466720350796   -1.25541518589179   -2.77347896759007
H         3.36849192506463   -2.08497224010980   -3.36098501906575
H         3.50493575385284   -1.66454938687317   -1.68784972030449
H         2.97828090626083    0.02181564905832   -4.20612591167711
H         5.10409231193924    3.08679781458990   -1.44767149128912
H         3.54666307523497    3.66654497747101   -0.64039271266366
H         5.32761469551417    4.17542012226856   -3.59981530208574
H         2.15008284509680    4.11061012409776   -4.02652082660750
H         1.01317650020390    2.91299189542822   -1.51616868869706
H        -0.95428234065025    3.51252621481136   -2.78346606204396
H        -0.02049423437504    3.65742789202144   -4.26620476037160
H         0.98805877384018    5.58906950311295   -2.83860228203799
H         1.49472745277131    1.68272909942795   -4.12112192748037
H        -0.04721555215496    1.29967114803229   -3.29562181068852
H         1.30935852964181   -1.58577976651887   -2.02502242265134
H        -0.17295632546107   -0.66013893389405   -2.44758704780464
H         1.31209707285188   -0.36647113000313   -0.06188625927929
H        -0.24891731195031   -0.94617315205889   -0.15903999874018
H         1.75499656905322    1.59333399536796   -0.55623348596000
