35
 energy: -49.721851684857 gnorm: 0.113594792328 xtb: 6.4.1 (79825abcba525fcdf90b791dcacef51065a7a4e7)
C         3.64271826946631   -1.33127863240630   -2.92166175309624
C         2.92488671444919   -0.01443494063793   -3.17880949682628
N         3.96001911764782    1.04739194381788   -3.01477729835371
C         3.64803453603652    1.65045034155779   -1.90400522606628
C         4.14771936987914    3.04123261601830   -1.67336557475306
C         3.59076265381619    3.89243871367930   -2.82078423626471
N         4.22175065969105    4.90534201386810   -3.32627988324858
N         2.44110195474949    3.43873784368192   -3.44564073768975
C         1.24648319167789    3.06243257539381   -2.66513620632157
C         0.01656329375631    3.84460476402476   -3.19441451513365
O         0.28899571866321    5.24106794183744   -3.31322999476677
C         0.88816956073415    1.56168570066254   -2.74024714494264
C         1.79722006028643    0.43199924067994   -2.17687576978128
C         0.99702020632841   -0.77144955833726   -1.58892367150281
N        -0.04605230411065   -0.40516626415772   -0.61818259979053
N         2.58912954925599    1.15666096718376   -1.16331686376021
H         4.42355357468139   -1.54271532117343   -3.66184309793727
H         2.93194255539435   -2.16265146087120   -2.86913387900413
H         4.17065746488518   -1.30698122873570   -1.96613179473096
H         2.45565760319862    0.05523799220128   -4.16960923896206
H         5.23892835970013    3.10219332193981   -1.68798973734054
H         3.92230070791516    3.47626023615788   -0.69770611135883
H         5.15001968186897    5.04974855068588   -2.90955342586635
H         2.32351606008230    3.96845451490863   -4.31251985305281
H         1.35853631140276    3.32461590008089   -1.60435164656653
H        -0.68219731933680    3.53306037892170   -2.41127896026984
H        -0.38792824188468    3.57300522102764   -4.17754197773732
H         0.93600800184672    5.59694366589899   -2.67479845360387
H         0.58810959911251    1.41966014115197   -3.78708187432129
H        -0.10142663865808    1.39517629818239   -2.29370617276444
H         1.80072465312167   -1.41665547528679   -1.23507083017737
H         0.47788288323767   -1.37710379012540   -2.34215675581426
H         0.43417577235712   -0.14472590827433    0.23969172188418
H        -0.61900773546299   -1.24009037926702   -0.48544648132624
H         2.08421832130620    1.67894426513090   -0.45019816779110
