35
 energy: -49.721160845052 gnorm: 0.129067605752 xtb: 6.4.1 (79825abcba525fcdf90b791dcacef51065a7a4e7)
C         3.64494230713314   -1.36851900847148   -2.67519036465438
C         3.11916567455041   -0.00935790579157   -3.11305390349237
N         4.04951511467993    1.13605325939863   -2.89313303874707
C         3.68794273512197    1.72557767166476   -1.79015760680431
C         4.06897445042076    3.15371987742143   -1.56129167819793
C         3.67825731982481    3.81431028104439   -2.88880161865967
N         4.37343119436848    4.53474638986241   -3.71181432000186
N         2.35538534521956    3.61733369543977   -3.24827319231148
C         1.19245163244563    2.89758620316789   -2.69378631287728
C        -0.03625530688674    3.79083661708992   -3.00525827621631
O         0.10278036763343    5.16596222073283   -2.64728536030037
C         1.07582285835594    1.44092503836893   -3.19459318910249
C         1.84963484959812    0.43368275108540   -2.29646753786022
C         0.88930626165341   -0.62426006932727   -1.66971196000735
N        -0.22429487684032   -0.04705440717080   -0.90079837475881
N         2.55220900677228    1.17105470606172   -1.22771635305578
H         4.56571665380461   -1.55575882357038   -3.24033949372534
H         2.92195502515169   -2.18561913004135   -2.76888594240608
H         3.92746432891556   -1.21994735016724   -1.63094162051663
H         2.82998030714646    0.01726568549815   -4.17247706326315
H         5.16064782383025    3.19027349698388   -1.52153961908840
H         3.59481876649676    3.66138521929284   -0.71901720733276
H         5.31846540364068    4.48108303335325   -3.31152921986566
H         2.19466305335100    4.05186733636933   -4.16000476244397
H         1.37694455526962    2.90305644445350   -1.61096946421269
H        -0.87711576699317    3.33415567443325   -2.47325846695662
H        -0.20352595645336    3.69364851865659   -4.08530194824722
H         1.05256882988704    5.38224613919803   -2.58411571787197
H         1.43761735698609    1.27207317461743   -4.21765916841441
H        -0.00947341150595    1.28899512265030   -3.12060545389146
H         1.60668885375346   -1.26449362990117   -1.15696780290657
H         0.47575440055601   -1.11173882085047   -2.56135092271373
H         0.13361858763466   -0.02253962881398    0.05088093985067
H        -0.97001875800251   -0.74006924128280   -0.98217047853478
H         2.11007525328558    1.50421121818922   -0.37344593209849
