35
 energy: -49.723774977641 gnorm: 0.113880831361 xtb: 6.4.1 (79825abcba525fcdf90b791dcacef51065a7a4e7)
C         3.45807958684841   -1.45080668019010   -2.78372519540579
C         2.79974230002786   -0.09521309795287   -2.99453897491390
N         3.86294257553907    0.92595812719844   -3.22409610941303
C         3.83063982603305    1.68505016377088   -2.16694700737360
C         4.42049908987675    3.05884769634359   -2.21055117410930
C         3.52926458820768    3.86198234939926   -3.16553703132303
N         3.79722907342782    4.97057381822889   -3.78105697744353
N         2.33936675873480    3.26337015930359   -3.54476844086698
C         1.26007608246520    2.97831651491217   -2.57947934253682
C         0.01739339600925    3.84500043391433   -2.90997980908439
O         0.34368705047633    5.23291086132012   -2.83459378601411
C         0.83225206778180    1.49729012243262   -2.48048963310125
C         1.91624955877046    0.56251578901782   -1.87131146738373
C         1.25436581842448   -0.32920823744943   -0.77539418429525
N        -0.15681506513788   -0.55854069198948   -1.12249230056195
N         2.91038381358644    1.40186460091180   -1.17363850079073
H         3.87714175381532   -1.62790580459015   -1.78607772994113
H         4.28678582953348   -1.42160317649819   -3.49894208065003
H         2.83343599997929   -2.31325757077306   -3.02527539910267
H         2.19600484434953   -0.21073115094654   -3.90496253822105
H         5.40520664687301    3.01126191675207   -2.68251914360250
H         4.47953328283627    3.52409174101360   -1.22463183841508
H         4.77927850321600    5.23379879497195   -3.63109332596186
H         1.85162932601444    3.53952240068793   -4.40019683448320
H         1.50587910774728    3.32808162226322   -1.56764678151751
H        -0.71100970550975    3.62317729306676   -2.12330896822544
H        -0.43747983028887    3.60555868864259   -3.87934935951775
H         1.06547044639770    5.44462366153568   -3.45674624264364
H         0.49067971161088    1.08077071380773   -3.43752155576877
H         0.04544594545656    1.40861372258256   -1.71924230539312
H         1.13212430265825    0.27386395862156    0.12394128902953
H         1.92638662871468   -1.19312800507707   -0.69982062429642
H        -0.29138387483247   -1.23979487946631   -1.86558078911840
H        -0.70045829924731   -0.76320334140548   -0.28251592192904
H         2.84115802244205    2.07320154079647   -0.41155716229041
