35
 energy: -49.717796093162 gnorm: 0.109411638101 xtb: 6.4.1 (79825abcba525fcdf90b791dcacef51065a7a4e7)
C         3.24640638265034   -1.55565288372005   -2.95049351219960
C         2.81307984617610   -0.12096744475870   -3.21391373552619
N         3.96838972309675    0.81876999240163   -3.30354974028037
C         3.85568303495121    1.57066502737559   -2.24677187300686
C         4.54029571729320    2.87021405985578   -1.96457919557423
C         3.81238479303392    3.91388098253842   -2.82028196210491
N         4.29357030019171    5.08653855501323   -3.09042919074356
N         2.66417926604012    3.48019080390756   -3.46180105551510
C         1.46659336340370    3.07843133710070   -2.69872548690085
C         0.37206521119475    4.05204752209664   -3.20736238182315
O        -0.85423718388387    3.76229552664259   -2.53604116110886
C         0.96632027941008    1.62493512858202   -2.85152317576607
C         1.84687287621575    0.54215458804518   -2.16438049049918
C         0.93790604071120   -0.38480963667093   -1.29904059586678
N        -0.01172642403855    0.47534963212940   -0.57597339718615
N         2.91131952254408    1.13826975025747   -1.33302198463925
H         3.16802146846099   -1.83900390233679   -1.89415754450881
H         4.29659881581898   -1.75121959874115   -3.19130793085623
H         2.76221131949651   -2.17973345692354   -3.70443398702610
H         2.20471307242365   -0.14943390110760   -4.12813140172876
H         5.58201275470020    2.83046554767031   -2.29308003958754
H         4.41375787130328    2.97716476756142   -0.88544819422129
H         5.16573151876811    5.40977751185227   -2.65333773638424
H         2.40938168030692    4.15531425727316   -4.18650245494733
H         1.57860273014107    3.34038573752232   -1.63787974856277
H         0.22535684448506    3.82284152899543   -4.26781929564002
H         0.58623000449212    5.09961376316123   -2.96107445832649
H        -1.61413796910102    4.32311434889960   -2.78282103428718
H         0.74500570587297    1.40319601353009   -3.90410182514095
H        -0.01892992884477    1.65589494258236   -2.36701477936908
H         1.57207457857313   -1.06951105851495   -0.73649497564619
H         0.41466622729278   -1.09136274804268   -1.95530540144464
H         0.45144561163631    1.14076569380487    0.03810287240427
H        -0.58605136381273   -0.02928975933250    0.10114182914270
H         2.63608812735898    1.79160207456822   -0.60250297244896
