35
 energy: -49.712374107204 gnorm: 0.117977059131 xtb: 6.4.1 (79825abcba525fcdf90b791dcacef51065a7a4e7)
C         3.64091559201718   -1.35315265361736   -2.73225973026450
C         2.99064369009329   -0.01256718405376   -3.04122820465355
N         3.95348583515642    1.12133346772527   -2.92683267043184
C         3.65390256047490    1.81448241591626   -1.86635030712486
C         4.13084530856681    3.21544112026829   -1.64956631431064
C         3.82033069915760    3.84890537261075   -3.01104563833280
N         4.45582327925036    4.62853255369707   -3.82834329583978
N         2.53193614640312    3.51989334647257   -3.39808623396490
C         1.30513857536149    2.97134130155808   -2.78819662275764
C         0.05512761063807    3.73484017355509   -3.29728786376508
O        -0.31872226473168    4.85628193096185   -2.49663150091246
C         0.94320250246498    1.47224370201324   -2.87752865988727
C         1.84754198195473    0.48705533203249   -2.08284274424542
C         1.00538664263828   -0.71510717621905   -1.55380939937947
N         0.10796168175593   -0.26112488245796   -0.48001682065291
N         2.65061889718438    1.24495944346290   -1.10294183510231
H         4.49064389175757   -1.48444414109403   -3.41270226963011
H         2.98211458229478   -2.22370495436142   -2.81747712808972
H         4.12005034652760   -1.27923189974857   -1.75383585415685
H         2.60452598940903    0.01249097184053   -4.06933308500992
H         5.21259649592213    3.35185751650640   -1.57293674204981
H         3.59811758544803    3.78883073910267   -0.88838333038400
H         5.44159701894244    4.68549326239913   -3.54338157549089
H         2.28855235140675    3.78159894570905   -4.35630338571638
H         1.24749712980485    3.07917107002306   -1.69658767387973
H        -0.84685857694514    3.11585510716552   -3.25363012653979
H         0.18589121339302    4.08165791012936   -4.33002096887269
H         0.32551215155744    5.54577979877374   -2.74647538918751
H         0.79466324483765    1.06013420393047   -3.88458976087705
H        -0.11013531696325    1.47315172126245   -2.56623539342493
H         1.61649485421880   -1.52169145235907   -1.14956698982746
H         0.62525448672036   -1.14334131873647   -2.48964901284600
H        -0.67555419777367   -0.84546371058657   -0.19886287938365
H        -0.38461098630415    0.55517099559492   -0.84611556949653
H         2.06894083501449    1.81310570106321   -0.49047635872659
