35
 energy: -49.723551726043 gnorm: 0.099385089856 xtb: 6.4.1 (79825abcba525fcdf90b791dcacef51065a7a4e7)
C         3.49446555630814   -1.45314909399648   -2.35098621937748
C         2.95524466069505   -0.23832652266997   -3.09188525914427
N         4.01518556956243    0.80844683284736   -3.17357255672627
C         3.79217669166439    1.63113767928072   -2.18956278180007
C         4.32587622114538    3.00867777248154   -1.95567594277634
C         3.79567253816381    3.82303206118229   -3.14186030783019
N         4.53758708997901    4.71742203663644   -3.71568447542447
N         2.49285413283448    3.60139697145849   -3.55604858135600
C         1.32071087553414    3.08749264326699   -2.82127685408707
C         0.09690223937359    3.91856396065410   -3.28629805631545
O        -1.03262535918698    3.74149312747212   -2.43116106234814
C         0.99694547200532    1.59983676658881   -3.08267212240270
C         1.81896854842821    0.52441507281889   -2.31605753409685
C         0.84698867334870   -0.23585748098309   -1.36131289124566
N         0.43457530890279    0.70121711727963   -0.30475792669368
N         2.72931137295630    1.23604164113343   -1.39713395810276
H         3.66701639816789   -1.17485255490360   -1.30453749913419
H         4.42533891951070   -1.79327916156492   -2.81674194938349
H         2.84978040844951   -2.32442514076170   -2.48367674628321
H         2.67781461250960   -0.43505592319260   -4.13641602720363
H         5.40987651472025    3.01281824437274   -2.09565225740042
H         3.95904902931241    3.46785557686013   -1.03558488189545
H         5.53634188684971    4.61058624821670   -3.49826199299006
H         2.22902394820763    4.14723436557892   -4.37967517569785
H         1.49710402490304    3.33577191820910   -1.76590831955340
H        -0.16875752616816    3.55122627971292   -4.28284986822720
H         0.22562714685362    5.00326234659730   -3.39011825486710
H        -0.84780560927335    4.01945623095282   -1.51385771422420
H         0.96808888070022    1.40888066173862   -4.16377030066589
H        -0.05876263312931    1.51395967699728   -2.79193100471479
H         1.30686402653439   -1.15043851389856   -0.98781649943238
H        -0.07288074046315   -0.56168380216448   -1.86266922905246
H        -0.35098954343892    0.20380821295830    0.10739348536487
H         1.05027077728360    0.86757200828706    0.49288875213370
H         2.30150621420437    1.76708782410228   -0.64133888996263
