35
 energy: -49.721771848438 gnorm: 0.122338098876 xtb: 6.4.1 (79825abcba525fcdf90b791dcacef51065a7a4e7)
C         3.53576082418418   -1.37759716716363   -2.84620531138613
C         2.96447181335404   -0.02412475030191   -3.24272227211934
N         4.07136454681581    0.94376186142937   -2.99000512279650
C         3.78433993445196    1.55228900553714   -1.87549178358478
C         4.35633552295617    2.91014913430497   -1.61821406519597
C         3.63585426629390    3.80732296056580   -2.63177613553002
N         3.92910577513567    5.03631935737779   -2.92024833545338
N         2.63006617023064    3.21376060449189   -3.37614425165982
C         1.30568990477187    2.99772291371223   -2.76192750938929
C         0.14725585072574    3.77475712751296   -3.43933445576618
O        -0.15777097378727    5.12693586526080   -3.09725664236254
C         0.93710002527203    1.50514630501499   -2.91235388282614
C         1.85379279844056    0.44749757121755   -2.23338027850134
C         0.93991564411557   -0.60885747094081   -1.53822628890345
N        -0.08952824857781    0.04928827760459   -0.71871948629010
N         2.65559419767886    1.12822272312855   -1.19738573829960
H         4.32723035767932   -1.51325946893333   -3.59283065323222
H         2.82681945637008   -2.19660937751810   -3.00671452202489
H         4.10491608661276   -1.48286289068953   -1.92028465197873
H         2.64238004080041   -0.01698129110272   -4.29292237182139
H         5.44029049741619    2.98318212314357   -1.73810951585812
H         4.09888286424132    3.31816974932893   -0.63882073117044
H         4.70456456436140    5.51833430103004   -2.44852509482231
H         2.48615024530812    3.70989748194483   -4.25877781881768
H         1.30815394557778    3.24872232366152   -1.69255708544479
H        -0.79154723878040    3.28283079085790   -3.16495365056624
H         0.12790167143536    3.75475278109379   -4.53621391816641
H         0.70022342263579    5.59129708650392   -3.13014326922847
H         0.82576900986609    1.27917416463046   -3.98128428112828
H        -0.01948796527733    1.40022877255618   -2.38286677404575
H         1.52643342941740   -1.31638390486870   -0.95269527183694
H         0.45894681104658   -1.16101349524835   -2.35521674293304
H         0.33481639910173    0.19415431818594    0.19415618295432
H        -0.84988277953965   -0.59452192405880   -0.49429913779949
H         2.24845087756371    1.79119640277056   -0.54091511318221
