35
 energy: -49.726800892132 gnorm: 0.101845703411 xtb: 6.4.1 (79825abcba525fcdf90b791dcacef51065a7a4e7)
C         3.68446694473473   -1.30395516381789   -2.45557160347681
C         3.06118249531950   -0.12746001449157   -3.19236203212116
N         4.04003720648375    0.99416900387715   -3.09400643331142
C         3.71311400332423    1.68191477797817   -2.03809194641535
C         4.26076143001543    3.05451914715541   -1.80745263621527
C         3.62387183947126    3.96884112047912   -2.86087997677256
N         4.20586053150588    4.87739905427159   -3.57883293288610
N         2.30093838095313    3.71659981261064   -3.18372858837291
C         1.16634969256678    2.94863737381272   -2.63523139732696
C        -0.09286372514166    3.80764267694656   -2.92005291679209
O         0.16814006364306    5.01536537192175   -2.20470063810601
C         1.06111485376377    1.47952300327429   -3.10095678259120
C         1.90476642917944    0.45006251493634   -2.29571468273176
C         0.94977010980214   -0.60295170984834   -1.65272194642495
N        -0.37509299348554   -0.11110688535590   -1.24366400207768
N         2.73526815276232    1.09184441728270   -1.25747586360230
H         3.94609786935907   -1.01129858071168   -1.43176543394755
H         4.60969020811788   -1.47679257799060   -3.01524224859820
H         3.01514011749683   -2.16670694728799   -2.45263351350849
H         2.80423966700445   -0.37833014419681   -4.23051375051321
H         5.33147942961478    2.91049763371115   -1.97324743191843
H         4.08929167731987    3.38072725380536   -0.77975599354936
H         5.20641925883628    4.88905489229345   -3.34443168826736
H         2.25467573219092    3.90382537538602   -4.18807512259268
H         1.18907003326794    2.99637126208520   -1.53806907878533
H        -0.89855947161814    3.26483316605678   -2.41523631674191
H        -0.33562408510944    3.91937935409013   -3.98424352508645
H         0.92857907155004    5.39955840550523   -2.68114107606263
H         1.43456934036104    1.41096538132865   -4.13144298564189
H        -0.00313554017627    1.22833980983893   -2.99750154527625
H         1.55960531582120   -1.09518661920682   -0.89558973768835
H         0.77241675083630   -1.37428090341426   -2.41250992870699
H        -0.39963686003337    0.45023217393385   -0.39590661008762
H        -1.08812560912582   -0.84224635481561   -1.24749149645369
H         2.28092245148405    1.62901707883403   -0.52176599803380
