35
 energy: -49.722218111247 gnorm: 0.115256254430 xtb: 6.4.1 (79825abcba525fcdf90b791dcacef51065a7a4e7)
C         3.64148932339678   -1.42824522270388   -2.84189913979694
C         3.04031946347134   -0.06397086676461   -3.14658706272866
N         4.07740035377137    0.99757751572846   -2.99341961514567
C         3.83000143373563    1.60358521770307   -1.86808550392119
C         4.24996544837582    3.02045367425677   -1.63728487642672
C         3.69338275426899    3.88787648395868   -2.77267712577783
N         4.29521631998762    4.79822999718418   -3.47174626253650
N         2.38108880683684    3.74790188755589   -3.19255991170517
C         1.21753141465332    3.05216156590561   -2.60947624373585
C        -0.15976360416379    3.65028180284493   -2.99670026341418
O        -0.21755787641327    5.06359233565239   -2.80264069562142
C         1.10978309801723    1.57397022345194   -3.04492106882452
C         1.87119478923517    0.47864356963232   -2.24463146015118
C         0.87904145859672   -0.59998961833299   -1.70939433042214
N        -0.16451302275019    0.10143197910016   -0.94552014444477
N         2.75236821262983    1.04512027677938   -1.20434568982873
H         3.83951835154872   -1.41948984539417   -1.76348107089049
H         4.55181579294345   -1.70255465918217   -3.38522420935798
H         2.94122185532961   -2.24042636785035   -3.04765367140587
H         2.69571923934489   -0.06506854625566   -4.18964214665055
H         5.30404149215897    3.30936618493707   -1.62631270909646
H         3.82864436701105    3.33342324122589   -0.67993823129769
H         5.30546119722414    4.80692633508273   -3.28325957865984
H         2.33799825622429    4.25954078313335   -4.07702270681056
H         1.38026399543217    3.08468741145844   -1.52364934084924
H        -0.95109525085211    3.09594610537381   -2.48178886146651
H        -0.38311186105694    3.53908445883542   -4.06518986801573
H         0.68660744181847    5.25192171157281   -2.48659578450317
H         1.43908387710568    1.54029074941276   -4.09205854998091
H         0.08009282383981    1.19473562473101   -2.99650686093668
H         1.40865051231426   -1.33503114589875   -1.10386021463246
H         0.29314175598497   -1.09586250452053   -2.49330269713829
H         0.29276159215817    0.43951927590171   -0.10231587058716
H        -0.74324123723332   -0.63742130726479   -0.54282353001297
H         2.28928146086245    1.60703040819827   -0.49296593845323
