35
 energy: -49.723615177075 gnorm: 0.113716868021 xtb: 6.4.1 (79825abcba525fcdf90b791dcacef51065a7a4e7)
C         3.61409748361638   -1.27561810380911   -2.64988192895665
C         2.97431851062738    0.02018958226325   -3.12637931777612
N         3.92321071854864    1.15869655559316   -2.95524353953135
C         3.55963108524164    1.70173917703289   -1.82930260931816
C         4.07059520320754    3.08895377032235   -1.60191249437370
C         3.64475227505407    3.82468091290658   -2.87811214734279
N         4.33020613156403    4.77166543446342   -3.43759236921602
N         2.46901803174364    3.40590616011432   -3.47835087780902
C         1.28555014797045    2.94616924733637   -2.72605259661424
C         0.17786087596739    3.90269946668674   -3.23860136808780
O         0.36368814198097    5.23882583258571   -2.77096848129522
C         0.85286881095291    1.46990874848199   -2.86645672552669
C         1.76598808967097    0.40430785296078   -2.19514488463706
C         1.00469566127883   -0.83886584909846   -1.63904279876357
N        -0.15373168332677   -0.34208136073295   -0.88025875105296
N         2.54022682030940    1.07710816311624   -1.13332989984923
H         4.62272061547218   -1.21509218394321   -3.07566788332526
H         3.11276044368202   -2.12943174568118   -3.11764845218340
H         3.66862112281874   -1.22661356842548   -1.56039884135907
H         2.61238939655519    0.00227708483034   -4.16339468741767
H         5.15461029949834    3.03356794936595   -1.47341807897130
H         3.63706079311706    3.66684471878042   -0.78333814887193
H         5.14983520983806    5.11224854004483   -2.91951044451874
H         2.38677374489160    3.76692401406531   -4.43166487277066
H         1.45204716381771    3.22513382138901   -1.67675883936885
H        -0.78201885635069    3.61210802941171   -2.79949419542505
H         0.12304203965519    3.87022081965986   -4.33398228724870
H         0.64735352993493    5.80990582514644   -3.51006850816690
H         0.87757247882270    1.13423352946044   -3.91181890360980
H        -0.11677511993321    1.53324925296525   -2.35439862262806
H         1.71046949480729   -1.50728616010264   -1.14655834328818
H         0.72580691200744   -1.38532084022881   -2.54859692954981
H         0.15292188991013   -0.16257960532080    0.07270465003072
H        -0.90046584365712   -1.03317130162765   -0.79206651300705
H         2.01937247100407    1.50597694556957   -0.37107286605896
