35
 energy: -49.722315892668 gnorm: 0.110105104065 xtb: 6.4.1 (79825abcba525fcdf90b791dcacef51065a7a4e7)
C         3.51178132405729   -1.60660819909138   -2.72260831548409
C         3.01517163660366   -0.21125422449923   -3.07167928855416
N         4.10593351787231    0.80595696232536   -3.03423701425602
C         3.76947705336691    1.63981926816597   -2.09280240934326
C         4.28752968912014    3.00773471824143   -1.78041848865730
C         3.54329511949280    3.99547374804546   -2.68695513703084
N         4.09090602960837    5.13395263769938   -2.97614870561289
N         2.34699595784712    3.67530178725176   -3.30692938952688
C         1.20370731110969    2.91804517337826   -2.76162170064895
C        -0.03485000285873    3.68937644725640   -3.28665093745816
O        -0.03595790940697    5.07633743766638   -2.94785314130233
C         1.04550258587251    1.43590090356706   -3.16719682564126
C         1.85916386688435    0.47445957090891   -2.25421402222766
C         0.96387602355037   -0.55623226352110   -1.49894545961122
N         0.01442724230943    0.15308466431534   -0.62721242068112
N         2.72109893509811    1.20340165286789   -1.30275811605070
H         4.51222989122777   -1.59562099962334   -3.17122801059154
H         2.98120690654894   -2.50529073651414   -3.05427465114013
H         3.65135293646621   -1.80802523920108   -1.65851311069167
H         2.75501978473586   -0.37434273484370   -4.12640085274949
H         5.37794402488065    3.06499223978397   -1.82925781483868
H         4.08725243085294    3.19926539735951   -0.72439811863418
H         4.95281308177999    5.29746407298804   -2.44081907704519
H         2.15454391694359    4.25917888498073   -4.12421473743307
H         1.17258533299803    3.05177815142039   -1.67180208130438
H        -0.99481833301616    3.24405797718010   -3.00597342921155
H         0.00274123131029    3.55059438172891   -4.37442194920605
H         0.92599220097373    5.23977137153070   -2.97628900021676
H         1.45140191416138    1.20237907588848   -4.16056660131509
H        -0.02432615639126    1.19310958892686   -3.11294079018080
H         1.59250097734475   -1.24305615944686   -0.93277678576389
H         0.33343912489813   -1.10593261431189   -2.20891697613484
H         0.35866337117609    0.04208902108769    0.32335477598224
H        -0.96295749346283   -0.09490132154313   -0.78912942047315
H         2.28477640204231    1.86627241674788   -0.66520146292692
