35
 energy: -49.720263370063 gnorm: 0.112305059815 xtb: 6.4.1 (79825abcba525fcdf90b791dcacef51065a7a4e7)
C         3.70664132256800   -1.34527129971403   -2.67332299761486
C         3.08712437524030   -0.04317004694916   -3.15934310462842
N         4.01242962495887    1.12618551432936   -3.11138702239021
C         3.69945325449864    1.74026001897408   -2.00694746450505
C         4.19451372183994    3.09543233837337   -1.61251356748594
C         3.57897416425860    3.81808110624068   -2.81676105788440
N         4.15884457329217    4.77013134487607   -3.47781738561661
N         2.24982374342272    3.61014756348471   -3.14559636007849
C         1.08116740762750    2.88096771858844   -2.61602472021311
C        -0.08736628117271    3.77211071726934   -3.11102475010943
O         0.15509872490939    5.06533421971607   -2.55674173335300
C         1.04777746181139    1.42359944874186   -3.12713567656328
C         1.90243906014647    0.45997901450924   -2.25481638498766
C         0.97685935885746   -0.63569622078268   -1.64073610568221
N        -0.09954417240695    0.00559808886486   -0.86963362786449
N         2.71367702214018    1.15285287756565   -1.23433819084162
H         4.25310123030179   -1.20615455330522   -1.73294765501893
H         4.48392361319048   -1.69634344957896   -3.36014369571751
H         2.90229274662508   -2.07525092935790   -2.56151610781130
H         2.68655226948385   -0.25183547263230   -4.16069976446189
H         5.28083999286952    3.18208562152156   -1.69649923651794
H         3.96198138312447    3.30847615423218   -0.56727912375311
H         5.14397088712081    5.03740587946235   -3.35828484678426
H         2.00056195930256    3.93859132108575   -4.08149104808538
H         1.13903373516360    2.96970545458673   -1.52271003511831
H        -1.06267732531181    3.36833022377698   -2.82058150496225
H        -0.07359031071986    3.94514968563511   -4.19443929359936
H         1.10541771444916    5.26702663934764   -2.65203731743964
H         1.32347865493542    1.39549751474165   -4.18980653491761
H         0.02030535592752    1.03995772495259   -3.06759588837515
H         1.50167341544242   -1.30742707866052   -0.96192005706638
H         0.64116168458126   -1.14689597376117   -2.55159427521460
H         0.09898849365749    0.17269298546582    0.11375877306217
H        -0.98541317070203   -0.44768644436186   -1.09933851762874
H         2.31393300066053    1.58052459206551   -0.40153863003950
