35
 energy: -49.710840407558 gnorm: 0.114363489136 xtb: 6.4.1 (79825abcba525fcdf90b791dcacef51065a7a4e7)
C         3.19278446751030   -1.52633540954798   -1.95724619251246
C         2.73824337035178   -0.40288407374852   -2.87742767603918
N         3.84289218834224    0.47300283329100   -3.36574635929999
C         3.93054747321593    1.45856736175004   -2.51969227611801
C         4.55667218284923    2.81014723054765   -2.65517142856265
C         3.76317310661925    3.96236752671661   -3.28292119723011
N         4.32029623339182    5.12889299556300   -3.37499164919378
N         2.42431639823270    3.95981994456172   -3.63713312148981
C         1.46642832449117    3.18677823996253   -2.82302994255193
C         0.08267473522723    3.84311357745691   -3.06609743011800
O        -0.75646351454963    3.39036811522026   -2.00340532119077
C         1.34952341042202    1.68084855984693   -3.14672830764075
C         1.91804320062011    0.68697346452000   -2.09366169275693
C         0.90194053521383   -0.10232819637613   -1.21114547979566
N        -0.23310506341120    0.70596011445659   -0.73908247258547
N         3.06431116873725    1.35500682003382   -1.44608300236253
H         3.31621460416696   -1.25278369351317   -0.90263150101736
H         4.11046108966489   -1.97148227569752   -2.35581359209889
H         2.48510952241915   -2.35452319737536   -1.88208747409761
H         2.23058877834139   -0.80468149351486   -3.76487349844637
H         5.48229638663151    2.80249902762219   -3.23640156750381
H         4.78293691136470    3.16165799033970   -1.64659894111898
H         5.31868020894207    5.36801100898708   -3.32756203233599
H         2.23718226342711    4.88534978756913   -4.02991923885757
H         1.70086079079915    3.34766947370835   -1.76203260911254
H        -0.26403084155522    3.65054803651163   -4.08655877662185
H         0.00353435881120    4.92121064316688   -2.87804728635258
H        -0.66044480754553    2.42069273405528   -1.94529055520760
H         1.89459975436948    1.48036291005159   -4.07880529863272
H         0.29772425945171    1.37411489630085   -3.22456081706663
H         1.51576649334229   -0.55871310519154   -0.43501798963298
H         0.53382956349981   -0.89915310619164   -1.86935904505064
H        -1.03670984409096    0.14076111996519   -0.47608818945660
H         0.10724273251906    1.27654850077921    0.03653815577300
H         2.84373027232810    2.13756209492196   -0.83354337215763
