35
 energy: -49.725599689498 gnorm: 0.111329048133 xtb: 6.4.1 (79825abcba525fcdf90b791dcacef51065a7a4e7)
C         3.65550828209413   -1.40047748176753   -2.70750428323884
C         2.98097771385880   -0.12118660328853   -3.18069322471933
N         3.98601341784871    0.97950434234977   -3.11538890836063
C         3.71894402912874    1.57572934816331   -1.98932581706014
C         4.29350740783533    2.93278517577153   -1.73353035537196
C         3.56298871368218    3.87846979638585   -2.69443890220692
N         3.92549058284306    5.07079388906988   -3.05024850348067
N         2.50020696196776    3.37395538561535   -3.42517143350290
C         1.25262820947895    2.94731854621682   -2.76227229826736
C         0.10478045863619    3.83314299136093   -3.31217448931027
O         0.17019849789327    5.15510462148437   -2.77683918678831
C         0.93644225327585    1.45168571481037   -2.98448930613031
C         1.81579703163888    0.39403373609377   -2.25781255460928
C         0.92253290743198   -0.66124370331546   -1.53478750889522
N        -0.21749360395235   -0.04920821657472   -0.83460605815745
N         2.64284204963757    1.10182818152976   -1.26052600141666
H         4.58237280936566   -1.49523094583575   -3.28562330972851
H         3.02589058204632   -2.28537908396433   -2.84776395726085
H         4.06350142712763   -1.27679736410776   -1.70222199411361
H         2.62467614814561   -0.25498645821318   -4.21115971588459
H         5.35737178757100    3.08736336256424   -1.93092665057294
H         4.12056255446621    3.23333905070178   -0.69828572506912
H         4.62331414596168    5.38480661666422   -2.36421945641853
H         2.31017049458542    3.98257730268712   -4.22477828306118
H         1.32167273292471    3.14351702365709   -1.68370895061152
H        -0.93410655467248    3.56108422773000   -3.09927688600610
H         0.36431822718997    3.90132034625633   -4.37608770374240
H         0.97809826061580    5.51330450942601   -3.19139687391769
H         1.16687801477484    1.31151906340548   -4.04906569145118
H        -0.09909027912660    1.17121010565319   -2.74905212509977
H         1.54219786005133   -1.11693320837399   -0.76290295520704
H         0.54824425117869   -1.48574124555723   -2.15429738269114
H         0.09163418665359    0.62301914946388   -0.13679024374492
H        -0.73961080144857   -0.79927938190262   -0.37877499192534
H         2.14989946253067    1.57198234236027   -0.50407631408191
