35
 energy: -49.722464327994 gnorm: 0.113839069844 xtb: 6.4.1 (79825abcba525fcdf90b791dcacef51065a7a4e7)
C         3.62930557924480   -1.45935119636572   -2.59020425668380
C         2.95046498089651   -0.18772372338151   -3.07767062996615
N         3.96767618394377    0.89946582132391   -3.17349479920358
C         3.72537519477850    1.62427960090136   -2.11956708038870
C         4.37101055047428    2.95866090524370   -1.92022703122718
C         3.60474432207395    3.97122245710393   -2.77980678058608
N         3.99143352518030    5.19336564323073   -2.97081017189267
N         2.46596632501642    3.52874058600507   -3.43203703782576
C         1.24408074314291    2.94103788578688   -2.84936376922288
C         0.03930037337136    3.68109583580055   -3.48611358116750
O        -0.23575075881134    4.93507751357111   -2.86135540199459
C         1.07627033709215    1.41916517253525   -3.05433851598574
C         1.83609116466307    0.41262917290453   -2.14356451737593
C         0.89796567773096   -0.60109050507522   -1.41789962900178
N        -0.01635571105028    0.08330971514860   -0.49047593533426
N         2.73320321897056    1.18503030793438   -1.26144015424385
H         4.70581066101203   -1.33913281760579   -2.76038661436291
H         3.20246615557104   -2.26205945736691   -3.20062185135716
H         3.37653613037297   -1.72661560531408   -1.56208704131664
H         2.54978335414869   -0.37268248436124   -4.08363231640208
H         5.44464775916553    2.78911245743066   -2.03522092245180
H         4.27178935841109    3.12753762373762   -0.84616473884613
H         4.88981126568473    5.37540475046075   -2.50607716687802
H         2.25000110776509    4.18696142346221   -4.18437336988788
H         1.27277447437278    3.14010550538990   -1.76949866427464
H        -0.86858954087927    3.11203094081634   -3.26132780901249
H         0.14889436286680    3.77646005229610   -4.57368617689049
H         0.57491503735812    5.47260415815894   -2.94353407220888
H         1.24366868912665    1.31794553678941   -4.13498766733220
H        -0.01038216615543    1.27536911121247   -2.98409675207704
H         1.39864913716582   -1.38428682827475   -0.84924952197660
H         0.38536100480718   -1.12301511504110   -2.23552537441476
H         0.55468218071195    0.73968811032132    0.03628745331551
H        -0.39624963984630   -0.58792910708501    0.17893733858001
H         2.26777123884077    1.89813047812135   -0.70366357989979
