35
 energy: -49.716433445765 gnorm: 0.132286915020 xtb: 6.4.1 (79825abcba525fcdf90b791dcacef51065a7a4e7)
C         3.51808255955292   -1.46248800177938   -2.64792799042017
C         3.08798154277504   -0.06939753876681   -3.08358442482915
N         4.17612896480982    0.93966998270578   -2.92996176984727
C         3.75385516147997    1.74005478491725   -1.99406785916735
C         4.06640486276625    3.16957387446892   -1.68432153982632
C         3.62083900139158    3.88767644037159   -2.96382220181731
N         4.26010108136833    4.83055904913496   -3.58185227749387
N         2.37264649494809    3.53595813262754   -3.44994926751349
C         1.21782235898050    2.92606967260770   -2.76269077164027
C         0.01091772638507    3.86198900485469   -3.03114564076805
O         0.09890761960735    5.03364480467497   -2.22001900779880
C         1.05556686957917    1.42433306627348   -3.08631374939578
C         1.87774790739346    0.43342413255227   -2.21334782657586
C         1.01682292976503   -0.71804572583405   -1.60735946368144
N        -0.16651996516378   -0.09896531624157   -0.99015527108249
N         2.70129050038465    1.21258264220577   -1.26770172569388
H         4.37496552762568   -1.72221195309827   -3.28083614569922
H         2.74087289373777   -2.15530335078182   -2.98718322052818
H         3.68548516048015   -1.62990789364046   -1.58195678330507
H         2.89784387323556   -0.20439691522499   -4.15705415060806
H         5.13064822640845    3.37651885810478   -1.54566019896078
H         3.54409376750985    3.56185439657391   -0.80951807259668
H         5.20196745355011    4.91933330931150   -3.18034955741687
H         2.17627372870460    3.79723512274908   -4.41900945966876
H         1.45602569499115    2.92920419480397   -1.69039919194883
H        -0.96015802886350    3.42517832547754   -2.77651671004902
H         0.05795486550803    4.16318485798997   -4.08517974327262
H         0.65080252130110    5.74279889271609   -2.60130598000251
H         1.14304364999074    1.22435773525936   -4.16261662130251
H         0.02841813693907    1.20834809906375   -2.76267683177407
H         1.59043178881772   -1.09801925276974   -0.76235274271276
H         0.86101791059503   -1.39422556632923   -2.45717493139696
H        -0.14837505224988    0.22624361748366   -0.02666866137201
H        -0.92352181853624   -0.78194556347202   -1.04915748849729
H         2.15569888840739    1.77833648441023   -0.62078143399752
