35
 energy: -49.723553402306 gnorm: 0.113122375494 xtb: 6.4.1 (79825abcba525fcdf90b791dcacef51065a7a4e7)
C         3.56414508980781   -1.57076465649423   -2.54728933136002
C         2.96871866171705   -0.30220830318394   -3.14034633727938
N         4.01391708050623    0.75029938947610   -3.30056444278318
C         3.87089847455369    1.50618647600227   -2.25032217866439
C         4.44396350342173    2.87478775151485   -2.06142550701455
C         3.62272824663011    3.97345320998971   -2.74686628302744
N         4.11922021783823    5.15914101099279   -2.91204792491919
N         2.33538270600514    3.71275062418104   -3.18593970957622
C         1.16312045230182    3.01448846828662   -2.62367805315556
C        -0.05061307968220    3.69787885919443   -3.30519132961275
O        -0.23279020631775    5.01539242652975   -2.78613886396020
C         1.14220026225002    1.52363347544361   -3.02764006122542
C         1.89129013547952    0.40951648486477   -2.24179057517808
C         0.92155333511023   -0.53865487909945   -1.47050710279055
N        -0.21240698297738    0.26743053439924   -0.99211156131863
N         2.90875704389561    1.03589525187333   -1.37462986170856
H         4.37968292515887   -1.97424781857659   -3.15915293000273
H         2.87990147721563   -2.42162047590868   -2.46364044374024
H         4.02367114416360   -1.23618976349030   -1.61495724466588
H         2.56175896369027   -0.39107724411979   -4.15681106932132
H         5.45149648682921    2.85327371545253   -2.48460582431938
H         4.42159857086208    3.24272760703952   -1.03376112527394
H         5.09753694469399    5.11349284268345   -2.60058332163640
H         1.94413026949068    4.56045840714086   -3.60333480144260
H         1.21064529927012    3.12548878576665   -1.53189958797667
H        -0.93612385189215    3.12780119734671   -3.00600955685441
H         0.12389897012438    3.81231594540789   -4.38239559752847
H        -0.20274697919751    4.94321527273345   -1.81312543890772
H         1.50355985232151    1.43018131272995   -4.06047894798942
H         0.08217140601042    1.23638753298043   -3.01171895038675
H         1.57737989198068   -0.97936543648921   -0.72010114316164
H         0.53806084511371   -1.27040335734670   -2.19242011272368
H         0.14931575191460    0.94896433450064   -0.32949184802052
H        -0.84944156327313   -0.33652009075671   -0.47016743182722
H         2.72302408585773    1.70010876599820   -0.62591284725215
