35
 energy: -49.725975190954 gnorm: 0.102389580990 xtb: 6.4.1 (79825abcba525fcdf90b791dcacef51065a7a4e7)
C         3.48660728963441   -1.49108804127875   -2.47940314957845
C         2.91609332395873   -0.19547042463076   -3.03741144184257
N         3.95111425385684    0.87004508165758   -3.17630128016509
C         3.82133582919596    1.67978373748784   -2.16520816852351
C         4.44160238733778    3.03691413881437   -2.06214804564635
C         3.79553996390567    3.90736411036286   -3.14669511829290
N         4.46417859433629    4.82766641252688   -3.76767084196841
N         2.48416023255840    3.68070498768001   -3.52999481862738
C         1.34403620142893    3.10152191442343   -2.79340054960369
C         0.08136943750213    3.88532429401006   -3.23607231650720
O        -0.91847047649672    3.91419103199318   -2.21728244017079
C         1.14544596943532    1.58412898109811   -3.00400000156434
C         1.87336840569356    0.53611268581221   -2.11420089005159
C         0.86121866259449   -0.33736830306029   -1.30991212819737
N        -0.14867119269636    0.48498071113115   -0.62553901991643
N         2.83995558254479    1.27519055859839   -1.27812071132977
H         3.81825630736617   -1.33918484212339   -1.44537605669125
H         4.23359829780185   -1.92613013582915   -3.15162698862098
H         2.64563081673101   -2.18687208920846   -2.44792613778244
H         2.46933728606033   -0.41338837005059   -4.01702117583297
H         5.48581925008765    2.84062423630208   -2.31856285705256
H         4.36717519756960    3.44698494802570   -1.05305116686343
H         5.45822200792282    4.86372161438950   -3.50926171443930
H         2.25609603577316    4.32654437395632   -4.28945765370544
H         1.61343291500074    3.20841170443967   -1.73389128983285
H        -0.40361640132776    3.57094098021429   -4.16589996370234
H         0.41861185514969    4.92322741938629   -3.34984395632004
H        -0.67428125213635    3.23846993431034   -1.55649512068715
H         1.45215529325783    1.49498240018601   -4.05473902482550
H         0.08806746722267    1.32626843597027   -2.85606922446991
H         1.40704179217217   -0.89235466161242   -0.54734369519977
H         0.54941915581244   -1.04576194050659   -2.08749828600517
H         0.41972895384852    1.12885600277772   -0.08079832707541
H        -0.72020685453710   -0.13528055312449   -0.04967615679898
H         2.46130501359458    1.96530214628738   -0.63265713854920
