35
 energy: -49.719147281462 gnorm: 0.128870348737 xtb: 6.4.1 (79825abcba525fcdf90b791dcacef51065a7a4e7)
C         3.71280209251716   -1.36278886699224   -2.86278860039122
C         2.99593188671039   -0.03574644089471   -3.06413387559879
N         3.97229221856539    1.07232631145093   -2.85252748843415
C         3.60997952442695    1.70348281929785   -1.77308348215535
C         4.06072999984568    3.11973493548295   -1.60512867115050
C         3.67128520413610    3.88428803510498   -2.87599980886718
N         4.31419423968882    4.65905293882490   -3.69211995798395
N         2.41908295200566    3.57655165869836   -3.38126970571407
C         1.25881650461887    2.98907941015072   -2.68372753662064
C         0.06175537802491    3.85402630552915   -3.15653124434666
O         0.12678428821811    5.16325332178192   -2.59072048391606
C         1.01963473761938    1.49187698889768   -2.97944444649250
C         1.80847705250176    0.43975353734094   -2.14835138597085
C         0.91444069983780   -0.74988627534121   -1.67957357932629
N        -0.10147737808903   -0.27190339466759   -0.72881346896062
N         2.61160592128161    1.05187069958607   -1.07138644057903
H         4.78027282024935   -1.12951742217951   -2.95426732113186
H         3.25040985391667   -2.01574288887282   -3.61044262643778
H         3.47656055978818   -1.80236923477999   -1.89154882759190
H         2.70815215448584   -0.03967958676832   -4.12426677371649
H         5.14379707505027    3.15816198745237   -1.46315617882404
H         3.64056620186517    3.72746948225281   -0.80132827524507
H         5.23610688898665    4.92829617354462   -3.32635677215428
H         2.29662056665999    4.07672400185582   -4.26486247019861
H         1.36081331834145    3.18053895093616   -1.60692683046257
H        -0.83978889226510    3.45089092479150   -2.68395597369446
H         0.00743558142258    3.85965140433900   -4.25240397466121
H         0.90749927616072    5.51279212252214   -3.06101187934869
H         1.12809167619017    1.34041436311403   -4.06174124071721
H        -0.02622366280132    1.40036706588462   -2.65659617544119
H         1.63375622382307   -1.47349889265086   -1.29693365715654
H         0.36797397418971   -1.05478579037843   -2.58073455631781
H         0.14944277956511   -0.65214682097138    0.18049975969980
H        -1.02322026632047   -0.53927497763092   -1.07795179151102
H         2.13862150805338    1.65983626073626   -0.40586627704395
