35
 energy: -49.725274352821 gnorm: 0.119655677910 xtb: 6.4.1 (79825abcba525fcdf90b791dcacef51065a7a4e7)
C         3.56833653917564   -1.32929867082223   -2.85696553921278
C         2.94407149008533    0.01693336298830   -3.19376949489695
N         4.01024371296197    1.05528083107390   -3.08892043350741
C         3.70112597647152    1.67183118569322   -1.98477356846173
C         4.31593726358902    2.99484596839428   -1.65493436665084
C         3.59529975441679    3.96211320201833   -2.60171725830504
N         4.08004022392887    4.94142010452454   -3.29858845388408
N         2.36888267782405    3.54860387764353   -3.09458744102254
C         1.13807058164316    2.98646242821910   -2.50551568988454
C         0.00990918302306    3.77234525668602   -3.22264320837439
O         0.27690841690337    5.17225524064756   -3.13656529408687
C         0.91390939142171    1.49944160715101   -2.85877530417192
C         1.84084368998821    0.46114189383192   -2.16402486381875
C         1.00239636612671   -0.74832084337069   -1.64585260200201
N        -0.11868360647575   -0.27873017222911   -0.81689768252384
N         2.68696883582244    1.17390224490204   -1.18647597664563
H         4.46862649039858   -1.43705363914347   -3.47352417673652
H         2.93926834107288   -2.17902979711968   -3.14222383287129
H         3.84793869332254   -1.32764216263372   -1.80142418129466
H         2.63954919724407   -0.05208380838790   -4.24696330954577
H         5.40442904073430    2.98493107937206   -1.75369908818221
H         4.08657687661236    3.13462747039964   -0.59671466481975
H         5.01716833838692    5.14942365813778   -2.93154215329903
H         2.23804558485229    3.92631427452023   -4.03592803111679
H         1.00637471656166    3.31638670063907   -1.46610910785994
H        -0.97971604174151    3.54974570064123   -2.81067361556752
H        -0.03710055376619    3.53076108377539   -4.29191702826917
H         1.22941431905153    5.14726536208010   -3.34863904402604
H         0.93460769396588    1.36909223271081   -3.94902794403275
H        -0.13248408946381    1.29816888683645   -2.59236426175204
H         1.59413250877915   -1.44979861979555   -1.05829782694747
H         0.63424985169307   -1.30919402165463   -2.51393676764425
H         0.10053269445555    0.09501200430595    0.10324227016007
H        -0.68089716834830   -1.11002132397495   -0.62751442769445
H         2.33695766917301    1.81969901060057   -0.48171205164342
