35
 energy: -49.717431330587 gnorm: 0.122203842847 xtb: 6.4.1 (79825abcba525fcdf90b791dcacef51065a7a4e7)
C         3.18763594673805   -1.46934413296841   -2.44470161201424
C         2.60619227063848   -0.16527069529066   -2.97081964137094
N         3.78353312021378    0.67159156387170   -3.34419894231855
C         3.95639046491403    1.50890580435871   -2.36243847020331
C         4.74529030819679    2.76409713980954   -2.56064712418423
C         3.88759076126257    3.99625567699799   -2.87283133450505
N         4.52750547955970    5.07701528160890   -3.19238201063011
N         2.52752742558686    4.01503403937078   -3.13337867779147
C         1.39370187844714    3.33008568312664   -2.48284631817098
C         0.17090444921189    4.09259602700374   -3.05553845613385
O        -1.04587672321730    3.83880142335906   -2.35305867402223
C         1.17456250583442    1.85428004454909   -2.88315521421594
C         1.84240673206310    0.78273290956688   -1.97446244331463
C         0.84470666474036    0.09781096883454   -0.98969186936203
N        -0.17927812640599   -0.75725704345195   -1.61002711413262
N         3.03776480292506    1.37002586544601   -1.33746713048569
H         3.78608970568538   -1.15025339737975   -1.58312637512433
H         3.80846152657517   -2.00458092219918   -3.17081404261514
H         2.46684153554037   -2.19709065923356   -2.06629960520418
H         2.12765307495933   -0.33271798871529   -3.94533288911822
H         5.37537352659384    2.54299549929210   -3.42596576058365
H         5.32912675125900    2.77339195464137   -1.63813825857633
H         5.54889778492335    4.96321178733574   -3.19440402272677
H         2.33646775792225    4.90247138226732   -3.60439541143622
H         1.35229146171605    3.46995047038837   -1.39413933018523
H         0.07924988020351    3.73851577494280   -4.08745619472469
H         0.29284822888263    5.17960420365749   -2.96915399135816
H        -0.88393190350775    2.92303185509743   -2.05639853776026
H         1.50144626074763    1.72642351558914   -3.92376558291076
H         0.08486842800740    1.73791345368516   -2.80932757052554
H         0.36567018450542    0.80889537818727   -0.31713973492534
H         1.51222790575048   -0.52148347495571   -0.37767021745250
H        -0.73007546972846   -1.05263775609389   -0.80767490835158
H         0.18665487714960   -1.59885879618094   -2.05812823163515
H         2.81454786707311    2.19933604478032   -0.79095791979503
