35
 energy: -49.715623351956 gnorm: 0.108773478600 xtb: 6.4.1 (79825abcba525fcdf90b791dcacef51065a7a4e7)
C         3.69832259953615   -1.49126576181893   -2.68337328842303
C         3.02390792829811   -0.19095836796350   -3.09550189415181
N         3.98485041300298    0.93575505536502   -3.27712903077217
C         3.84242497513869    1.61918137619481   -2.17827877349830
C         4.28210800184146    3.00798469549612   -1.83907509781742
C         3.50923697596553    3.94325797799291   -2.77676186448936
N         3.94150216977535    5.13560461761445   -3.04340978760263
N         2.31535895718284    3.54790332149656   -3.35672723896064
C         1.17416681023964    2.88201216517342   -2.69932594804707
C        -0.10448312268127    3.65745569875655   -3.10965938196814
O         0.08610766685957    5.07125391253657   -3.05225098475104
C         1.02090322212774    1.37193373270592   -2.98645826791288
C         1.92821239385902    0.42512813093553   -2.14961840635017
C         0.91892012515855   -0.56697047785565   -1.49283377614894
N        -0.14596271379408    0.14871839501642   -0.77289213964571
N         2.86704936125073    1.18351001323781   -1.29932491217880
H         4.42124442198736   -1.62968189118517   -3.49608646104454
H         2.89758948275680   -2.21770838271405   -2.50944893936953
H         4.28589955274719   -1.45073656711084   -1.76388518327803
H         2.42745903178732   -0.38686542105136   -3.99693607071967
H         5.34093105922831    3.15855343469056   -2.06466307508882
H         4.11621791764980    3.05006214897513   -0.76079685255100
H         4.89823328347356    5.29740118652700   -2.70475802812094
H         1.94261484810938    4.14058768326308   -4.10217521305762
H         1.34911354894064    3.03685605113576   -1.62602407458737
H        -0.89529773740363    3.26927751260320   -2.45961512021116
H        -0.35625347397467    3.38764265022120   -4.14297053686021
H         1.02531924001819    5.30702456118501   -3.17538133433245
H         1.30305637933583    1.16507157774516   -4.02745196131896
H         0.00622041899073    1.07096220388956   -2.69275801934026
H         1.54729048472465   -1.12729648421874   -0.80100371880192
H         0.37667817928030   -1.19940375461128   -2.20675431304319
H         0.31418274846349    0.75444537120262   -0.09779398042974
H        -0.66858020757245   -0.52451975679514   -0.21020534070289
H         2.51315863816547    1.86041394556588   -0.62640893445475
