35
 energy: -49.722524584270 gnorm: 0.123424811021 xtb: 6.4.1 (79825abcba525fcdf90b791dcacef51065a7a4e7)
C         3.60781804160247   -1.31001755963710   -2.96187353563409
C         3.10214275621786    0.11754906941294   -3.10962487206062
N         4.07723038933003    1.17345710906658   -2.70944451922029
C         3.62988347506397    1.73728913323853   -1.62463918274026
C         4.02357707666983    3.16114480193214   -1.39055513375607
C         3.68752304924339    3.76261605377887   -2.76045375983724
N         4.41905231806305    4.30982825330854   -3.67972987025550
N         2.43980291402053    3.45896682947603   -3.27910727906120
C         1.12212600123030    3.02012067471858   -2.78005961539640
C         0.05650596486265    3.96694599551476   -3.39047550256055
O        -0.00637667002314    5.24086846037413   -2.74890455851532
C         0.92475681925615    1.50311123739665   -2.99453405047754
C         1.84127829213457    0.49267877188908   -2.24689357024156
C         0.98211756577510   -0.69888038264068   -1.72122622734691
N         0.08027852141359   -0.38888107783574   -0.60091880240887
N         2.47496484248332    1.18084193127553   -1.10477722329079
H         4.52387755253250   -1.33514991299377   -3.56393750234538
H         2.78603140542686   -1.92970510752963   -3.33576676855349
H         3.83201962260861   -1.53249509490737   -1.91660559808060
H         2.81374170876786    0.41746453302878   -4.12628114086632
H         5.07972039701124    3.38746267758379   -1.22319727649251
H         3.32317324232551    3.64344735194535   -0.70587072740918
H         5.41241987972551    4.27775164717385   -3.41821591314356
H         2.38814367303112    3.68229894724539   -4.27578159238124
H         1.04443052195360    3.21546330278108   -1.70192949934518
H        -0.89314402765128    3.43836880954091   -3.25857159223739
H         0.25932152766099    4.03475513812571   -4.46666651263144
H         0.89893869831339    5.58737351931636   -2.86382013273304
H         1.01628820839924    1.23077189214691   -4.05449796135968
H        -0.09881627280722    1.23370170261268   -2.70103533453109
H         1.65129342026109   -1.49707109476315   -1.40100971381026
H         0.35983602890184   -1.03453727917109   -2.56014269367897
H         0.60150763116301   -0.07265318614708    0.21315531585780
H        -0.61656517763798   -1.09763934061423   -0.36625806096709
H         1.93086057337343    1.60922448519998   -0.35865899889916
