35
 energy: -49.721727062290 gnorm: 0.108238296676 xtb: 6.4.1 (79825abcba525fcdf90b791dcacef51065a7a4e7)
C         3.61858093325380   -1.45049309490729   -2.51812402543131
C         3.14613320059888   -0.15269457590447   -3.15687013900303
N         4.13166140103459    0.95967062304919   -3.02549342297569
C         3.70904463509658    1.65873024504790   -2.01181736563532
C         4.14951401054116    3.04817662222401   -1.67628726100348
C         3.63627536094221    3.88135836307147   -2.85684495189093
N         4.35636146941586    4.72512957708031   -3.52704711814909
N         2.31434698219090    3.82313562152695   -3.26565456775004
C         1.22205192331959    2.93832816514115   -2.81630591689295
C        -0.13959219202994    3.64597200425129   -3.03945901988017
O        -0.26078805037947    4.84053005082196   -2.26693809000076
C         1.15851588593828    1.47682403981290   -3.31253203356591
C         1.89769609054207    0.44701207832634   -2.41083827555070
C         0.91005468795430   -0.51430035222694   -1.67957947400390
N         0.14195206607493    0.21840661935204   -0.66092308789372
N         2.60155342725746    1.17650973025839   -1.33753729710038
H         4.39216460392849   -1.97376300535951   -3.09261039363822
H         2.69558731188328   -2.03553578672828   -2.58847963010921
H         3.98270085800593   -1.37383113345270   -1.49153389773806
H         2.88486652303043   -0.29485386217439   -4.21434112504835
H         5.24000970891630    3.07006182686876   -1.60552494191642
H         3.66879553404807    3.44199202410837   -0.77862742235333
H         5.35763647721019    4.68979236825506   -3.29814275818757
H         2.23951715556821    4.36519897000946   -4.12964149418278
H         1.30272411113747    3.01616719281693   -1.72360606494131
H        -0.96315488485661    3.02320050249960   -2.67541542887229
H        -0.29020154324406    3.88649644884327   -4.09935719182482
H         0.64872264228551    5.17408408116920   -2.14694113488615
H         1.59714745739171    1.45704225436721   -4.31915074276444
H         0.18330999016426    1.02857455490604   -3.54592165889154
H         1.46925395512531   -1.27022773674051   -1.12884057860859
H         0.33541254997143   -1.11722156749655   -2.39368949914246
H        -0.00986382836532   -0.47852933411685    0.06407949893828
H        -0.58743790332789    0.78530780784387   -1.09636355464640
H         1.99996823773618    1.69698545979847   -0.70235719249634
