35
 energy: -49.724253615479 gnorm: 0.115192446729 xtb: 6.4.1 (79825abcba525fcdf90b791dcacef51065a7a4e7)
C         3.73168131661432   -1.25367677698481   -2.81920019992689
C         3.08063262413008    0.09586989856348   -3.08442424251345
N         4.07989870190122    1.17715384460426   -2.84323070018155
C         3.64135279340911    1.75648374825240   -1.76300721739130
C         3.87789840150649    3.21047789219047   -1.50396637912408
C         3.53499600937208    3.79212403696102   -2.88071178476254
N         4.44741643419085    4.40581395045985   -3.56665527449440
N         2.27631728377695    3.59083031620797   -3.42220837590259
C         1.21657774597100    2.94739970716810   -2.62167345573418
C        -0.00600505842877    3.81711619968275   -3.01348509877080
O         0.35910250053406    5.19626914290779   -2.95799102032941
C         0.93518697179652    1.46579525085342   -2.95624632591244
C         1.84842418172941    0.47263572432951   -2.18191848092877
C         1.03764238939725   -0.72659208482429   -1.59986859563338
N        -0.10745851277021   -0.26142704700055   -0.80182889043772
N         2.56194023844472    1.19144040970765   -1.10778087865069
H         4.70888153262391   -1.37756632451829   -3.30087310875805
H         3.17968818666643   -2.08138328941780   -3.27674537549858
H         3.91314087489292   -1.43096457659666   -1.75713187624111
H         2.85983515542929    0.14854370062568   -4.15922113386818
H         4.90495682319782    3.36245503458530   -1.16232170583588
H         3.28726911378460    3.62126503002680   -0.68275692256681
H         5.41716218655548    4.33535444213679   -3.23374958856694
H         2.17952092463617    3.71992191846261   -4.43209520642865
H         1.41160546523855    3.19328572820880   -1.56902720086169
H        -0.87591888022981    3.63184619243860   -2.37508666119803
H        -0.34796230258268    3.51684933252264   -4.01189602939969
H         1.15625944938836    5.29627872274693   -3.51243321264169
H         1.11732705792608    1.44062489118701   -4.03895664992728
H        -0.14736475680211    1.31620849552562   -2.84610816988723
H         1.72990603057630   -1.23268798913606   -0.92749865240323
H         0.76907101505422   -1.44546531649447   -2.38394218189278
H        -0.41186749391193   -0.99119024450467   -0.16215914555565
H        -0.93159928738144   -0.04592203839013   -1.36516241127196
H         1.98618592032531    1.69079813202358   -0.43294585520514
