35
 energy: -49.716789355240 gnorm: 0.112929460977 xtb: 6.4.1 (79825abcba525fcdf90b791dcacef51065a7a4e7)
C         3.75530417004946   -1.35488285837546   -2.56872372499710
C         3.02580665709529   -0.08485877009714   -2.98146652154291
N         3.94279688795496    1.09134720974306   -3.02084170312696
C         3.60237777727210    1.77312754726305   -1.96532343568569
C         4.01917796887004    3.17306922256687   -1.64346036892470
C         3.63837253225362    3.90104129230233   -2.93820593177545
N         4.30281791791558    4.85586694300319   -3.50957718605538
N         2.43109140768068    3.56787787278153   -3.52937787625749
C         1.32256053184678    2.91723166435983   -2.80430837819643
C         0.11118697763334    3.85781001888352   -3.03347709469816
O         0.33253632632892    5.01367126051956   -2.22512369722248
C         1.03631883001294    1.42621517581611   -3.08927685443349
C         1.79197829781918    0.43674687062447   -2.15660172492635
C         0.86546025528823   -0.64239721737086   -1.51526806598155
N        -0.57066647105141   -0.34119814101706   -1.40886747925863
N         2.63559744630777    1.16267106708920   -1.18660290648133
H         4.46129515766614   -1.68889128610813   -3.33832931917474
H         3.06487001730400   -2.18303587044478   -2.37739849131285
H         4.29721386205532   -1.23640502864411   -1.62816827728349
H         2.72651873799920   -0.24233611172527   -4.02661820672701
H         5.09516806139841    3.11346105844467   -1.46081501334348
H         3.64420862880977    3.75853792184466   -0.80167750848939
H         5.26775226641142    4.91634657820300   -3.16109263595941
H         2.30128331649777    3.97454706346669   -4.45871937044674
H         1.59057734680659    3.04988938849658   -1.74736523634703
H        -0.76871435405280    3.30131272009841   -2.69478549666968
H         0.03343560634677    4.08245045444166   -4.10464968997625
H         1.22549209024588    5.38543407466872   -2.35661390239035
H         1.38250835827840    1.25148477050503   -4.11674573411250
H        -0.05348549233116    1.31678040133431   -3.00696389084009
H         1.40960229776973   -1.06150431030170   -0.66927632570153
H         0.98906955334993   -1.49435437173826   -2.19539338573779
H        -0.74700845138991    0.23825915093284   -0.59184282496049
H        -1.13814033369455   -1.18288198580334   -1.29689962941221
H         2.22805099088629    1.80855475425443   -0.51355489467044
