35
 energy: -49.725074834341 gnorm: 0.106953754994 xtb: 6.4.1 (79825abcba525fcdf90b791dcacef51065a7a4e7)
C         3.58265899906421   -1.38016745748829   -2.80501571931617
C         3.02296058173383   -0.03523028230686   -3.24474989651746
N         4.09283326088526    0.98185877751173   -3.02845306811454
C         3.73607133899488    1.64404175938341   -1.96587927154085
C         4.26987186291416    3.01168078859099   -1.67991518851808
C         3.63587116950377    3.90762310459053   -2.75073389093308
N         4.26968942672337    4.90739691667283   -3.27834317815536
N         2.38654114644124    3.58906983963120   -3.25640982877801
C         1.13612589363552    2.98271510023919   -2.75971817821877
C        -0.12203096719688    3.82748654963022   -3.08840395392193
O        -0.03813171859715    5.07181817793470   -2.39338908030522
C         0.98497052701055    1.49607002918646   -3.15126644617640
C         1.84685097932253    0.48683397537444   -2.33975156808802
C         0.93614218519637   -0.62992064184557   -1.74161678994780
N         0.15429214362396   -0.07326833568111   -0.62656041862275
N         2.61759352427592    1.18625974109702   -1.29270023356316
H         4.08535586481374   -1.27770622409186   -1.83595677160176
H         4.35604591390333   -1.64358353982138   -3.53414309918608
H         2.90012240442066   -2.23027477316701   -2.86673297067902
H         2.79033000162069    0.00958241188104   -4.31740513893334
H         5.36118499309597    3.04444370771912   -1.73119273539723
H         3.93614464001575    3.22273212068224   -0.66204609723898
H         5.26081656814792    5.06786847711012   -3.05899544130115
H         2.28343767116694    4.17043592444705   -4.09144800122985
H         1.18677727301615    2.88572974418224   -1.66674600213022
H        -0.96144428654769    3.28019169157433   -2.64740371067189
H        -0.19826461847678    4.03823356419098   -4.16250518488528
H         0.91569517521217    5.13380129420462   -2.19529916987067
H         0.99934586681583    1.50437740441476   -4.24935321459110
H        -0.04304734940979    1.20522288515429   -2.89629178922161
H         1.57758392018205   -1.43446139784472   -1.38285497077237
H         0.31770187840852   -1.05314394461323   -2.54292468316296
H         0.20741053468166   -0.79256968472688    0.09050341940035
H        -0.82628689894261    0.00096756075708   -0.90214862768569
H         2.13338748910143    1.73887657838690   -0.58813466650880
