35
 energy: -49.720450289539 gnorm: 0.107362611160 xtb: 6.4.1 (79825abcba525fcdf90b791dcacef51065a7a4e7)
C         3.45910910933427   -1.51899010919415   -2.58588001193151
C         3.05769722872516   -0.19632134301512   -3.22219778597368
N         4.07792668666368    0.89209129693797   -3.20291586931047
C         3.84834460900649    1.59206911730146   -2.12953264535630
C         4.22564090105617    2.98555553969787   -1.73838300698282
C         3.61378974792655    3.98726460415248   -2.72506396045990
N         4.28702599208026    4.93029858074525   -3.30565390481299
N         2.31800415691662    3.73717997361727   -3.14507256383137
C         1.17984285603766    2.95532123125586   -2.62431086409290
C        -0.09401176410595    3.67939840359010   -3.13189190021560
O        -0.21698527216909    4.99609990822867   -2.59372777280810
C         1.16906542494097    1.50532347762196   -3.15691008186723
C         1.89423606472311    0.39494395609945   -2.34380702573405
C         1.02980720161825   -0.62011018065118   -1.53342167114104
N         0.09902691255404    0.13851198817953   -0.68333788501246
N         2.79994087077669    1.07004255813810   -1.39328208629409
H         4.32873365927195   -1.80958828366111   -3.18719817502872
H         2.61992136259476   -2.21429328647851   -2.69292909158630
H         3.71877838021800   -1.46404964944748   -1.52668168904025
H         2.71664501675086   -0.42602054511498   -4.24084203062060
H         5.30357813244722    3.07819132504056   -1.58302189964895
H         3.73928824987406    3.10018228490426   -0.76766377919994
H         5.16400068664741    5.12671334001780   -2.80712186567642
H         2.04185561216513    4.41868780739510   -3.85584303118671
H         1.21598891841902    3.00151355391244   -1.52744276491271
H        -0.90855647568047    3.08818770711665   -2.70106197100203
H        -0.02248511213690    3.61085886218602   -4.22464329338030
H         0.49729911634036    5.57658963568480   -2.91883813814067
H         1.72444351692439    1.58254206232537   -4.10118900994308
H         0.10970608756403    1.35081733663318   -3.40249209885582
H         1.55013021596597   -1.29388546002683   -0.85317598398470
H         0.48764056079653   -1.20167724274985   -2.28940831255771
H        -0.64759009526635   -0.41151300190210   -0.26568720224260
H        -0.30811100753659    0.90910298209819   -1.21571305433330
H         2.28851217796180    1.56205033287974   -0.66347215393159
