35
 energy: -49.714331989335 gnorm: 0.111566493141 xtb: 6.4.1 (79825abcba525fcdf90b791dcacef51065a7a4e7)
C         3.33424877034920   -1.46600182258520   -2.44422070663906
C         2.93160642150655   -0.07904989517779   -2.92352013041939
N         4.10791045604999    0.83313121698188   -3.02410066089678
C         3.98241666397438    1.76203919052112   -2.12065741129585
C         4.60646573894546    3.12027829011079   -2.06676638639910
C         3.88044268336767    3.76589924359185   -3.25309951945669
N         4.33686694606343    4.23324345565047   -4.37243463381329
N         2.50324393102519    3.91175209892699   -3.26087113333468
C         1.36423844791800    3.21664886436317   -2.63047047750823
C         0.10091650579627    4.02740636907693   -3.01947148184481
O        -1.06065859250960    3.33492508615819   -2.56158620280291
C         1.18087256272712    1.73004766007008   -3.00818116666710
C         1.90381905173492    0.73578674173562   -2.05489983637168
C         1.02711750864290   -0.22197866233390   -1.18981233964709
N        -0.12110816935278    0.29296991739395   -0.42763932127016
N         2.88676068565022    1.54272687409367   -1.30507965385373
H         3.86968791264996   -1.31034402351925   -1.50010564051516
H         3.93547239701187   -2.07996950183132   -3.12298128144065
H         2.43550098903812   -2.08036320722381   -2.35960283522972
H         2.56685423910905   -0.14265934932181   -3.95774646418160
H         5.67976350777436    3.09100346935338   -2.27131961415059
H         4.49742681072911    3.63448276131517   -1.10985559231007
H         5.34986120159129    4.32366375454978   -4.52030068815144
H         2.19274963591074    4.21260251586926   -4.18768715011129
H         1.45715184862039    3.25784248173501   -1.53674744246155
H        -0.04715335016081    4.06564812127338   -4.10355657163567
H         0.02586806549025    5.02062664948264   -2.55925356019943
H        -0.96175555458033    3.15301887298720   -1.60764931792160
H         1.48890379257526    1.73311900396061   -4.06230522875762
H         0.11009995841848    1.49889622269145   -2.92793204341175
H         1.59715514888663   -0.76861593325562   -0.43902066750540
H         0.65491652362375   -0.86650498508973   -1.99587248494450
H        -0.76914291664084   -0.36910514216029   -0.00799171401681
H        -0.75837624679323    0.77045803133157   -1.06708406613627
H         2.52101230847793    2.05182747009055   -0.50302093690558
