35
 energy: -49.721156882884 gnorm: 0.126437814769 xtb: 6.4.1 (79825abcba525fcdf90b791dcacef51065a7a4e7)
C         3.68384206306106   -1.25872034202114   -2.86261671903382
C         3.03992357888560    0.08484289447731   -3.17195676737749
N         4.04155891730030    1.12865898065412   -2.80718747526000
C         3.59491336003430    1.80844307533527   -1.79070837167252
C         4.01198421559086    3.20494781796759   -1.45458135037037
C         3.60984657288298    3.83557145980095   -2.79320801474312
N         4.43926089802682    4.39644396284513   -3.61609240991825
N         2.36091183435732    3.55758206821420   -3.32320213218139
C         1.16861325242703    2.95160574512290   -2.69940428324769
C         0.01126002250320    3.82248501704653   -3.25324056977809
O         0.18194006659339    5.14354768818443   -2.73932646994741
C         0.91945696956300    1.44945125435895   -2.95964369414862
C         1.84240441625315    0.44173974240663   -2.21624796100046
C         0.97442793118200   -0.74623082642134   -1.69697990803957
N        -0.06237628381939   -0.23611553000982   -0.78630906766317
N         2.59153947006137    1.11564056176121   -1.13726172114076
H         4.65347768835999   -1.35725469963883   -3.36498652068381
H         3.00613452965775   -2.07028410949319   -3.14760589638814
H         3.95112690593353   -1.26723504866752   -1.80392224876080
H         2.73213144269791    0.27944114560443   -4.20834952202549
H         5.09752986794085    3.21155389039930   -1.32724657931166
H         3.40622411529235    3.52186312246197   -0.60335083117626
H         5.38669381356775    4.48855759928884   -3.22868627426252
H         2.31219174892211    3.77696203918531   -4.32090167176150
H         1.30314352929515    3.24856734993935   -1.65046420317466
H        -0.94570911257216    3.35677191943662   -2.99643523428055
H         0.15400170550851    3.81494806697519   -4.34112261329866
H         1.10158221627463    5.43818724353628   -2.88185053809849
H         0.85352070658136    1.10182176493693   -3.99929572411727
H        -0.05092702278299    1.27385791690431   -2.47596325349736
H         1.57359269117182   -1.49309148731136   -1.17674524902797
H         0.39798091748485   -1.11335854722318   -2.55523790367913
H         0.19201909342549    0.44833527563768   -0.07834959026505
H        -0.66425995565135   -1.01154112916677   -0.50444691891836
H         1.88460104042718    1.67731878973169   -0.66714564606051
