35
 energy: -49.718133566716 gnorm: 0.123635491273 xtb: 6.4.1 (79825abcba525fcdf90b791dcacef51065a7a4e7)
C         3.57567705609546   -1.30425391097201   -2.79526820681728
C         3.06369924509457    0.08077750722925   -3.16276119446596
N         4.10873924631941    1.11887099006387   -2.92583234512840
C         3.68374732738236    1.75776206015333   -1.87415346722070
C         4.12225580448737    3.15560619939979   -1.57266218520597
C         3.58137412100880    3.81053173733961   -2.84931473485786
N         4.16309625390161    4.57139473199360   -3.72243080499894
N         2.43234917105925    3.24439684005126   -3.37585324021612
C         1.16710353563995    2.94771070534784   -2.67654086355758
C         0.09492231980335    3.85803121342681   -3.32951545652100
O        -0.06487360897831    5.09865306419589   -2.64120692778998
C         0.85675758948173    1.46044627852638   -2.95582822078287
C         1.86168502947483    0.51047782221029   -2.24334496946029
C         1.08852969959547   -0.64243967381902   -1.53108900529513
N         0.03912464556817   -0.17359658586158   -0.61270067124055
N         2.61462622293744    1.21317130970803   -1.18558398045527
H         4.54331048883167   -1.36192541695663   -3.30774963471267
H         2.93724430116685   -2.10375331950804   -3.18558395431937
H         3.74369010699906   -1.54230448406498   -1.74291313849705
H         2.79822008853288    0.08274291756413   -4.22870272100662
H         5.18986647159606    3.26076064527679   -1.36333678407326
H         3.62364892600703    3.48220685291499   -0.65795065587286
H         5.08606517000780    4.87156801433508   -3.38446342808464
H         2.30602117309441    3.31264159195820   -4.38841903354956
H         1.28852797722982    3.19085895987193   -1.61225946224361
H        -0.89552073562653    3.39299201193130   -3.29225046857542
H         0.34404455265152    4.12966145159361   -4.36299232870265
H         0.52344520010890    5.77816200802144   -3.02201637208689
H         0.81855964552282    1.10360594783094   -3.99374733127942
H        -0.13086878689461    1.25598549888747   -2.52083995672919
H         1.90504741200523   -1.11349176639999   -0.98441533714335
H         0.56402749186712   -1.32390714459100   -2.21239671637821
H         0.56788319870787   -0.00901394392518    0.24036643205612
H        -0.72023674734445   -0.83340672855480   -0.43658727944570
H         2.16679750456934    1.76784327819420   -0.45891906184523
