35
 energy: -49.725783068909 gnorm: 0.096856366752 xtb: 6.4.1 (79825abcba525fcdf90b791dcacef51065a7a4e7)
C         3.63536153633992   -1.38395722259788   -2.87410086229120
C         3.04669474921080   -0.00003597527717   -3.10587196252003
N         4.12804849707150    1.02482596813509   -3.02704255946680
C         3.83070285802764    1.68611703773877   -1.94578953105220
C         4.30972278365437    3.06510618665462   -1.62008448728646
C         3.65315065218758    3.87113503361010   -2.74727245896891
N         4.24932879126933    4.71900913505649   -3.52529941425819
N         2.32237674240655    3.67952211242500   -3.07943977519650
C         1.18254970434943    2.97967361494378   -2.45581058100503
C        -0.07230917793103    3.72293346805801   -2.98261776750847
O        -0.15959766786890    5.14771528088691   -3.01131370991631
C         1.06481856090005    1.51316470807864   -2.92672730238167
C         1.89555247879917    0.46085715370792   -2.13775222544303
C         0.93727825410434   -0.65853290149592   -1.62494332872631
N        -0.19331451574418   -0.17607289636735   -0.81655338619546
N         2.79803088951234    1.15225773677381   -1.19591631499228
H         4.38523654697152   -1.61480136446665   -3.64004872729631
H         2.79963171530572   -2.08959644244515   -2.92674154415806
H         4.12044648633338   -1.34698711281362   -1.89651533044564
H         2.62279195488601    0.01764216663783   -4.11913813312655
H         5.39981315791396    3.13859123827403   -1.65123023552545
H         4.01563903642401    3.46486542489741   -0.64762302470649
H         5.25179758181772    4.83764819602964   -3.33248172775686
H         2.25375758805741    3.95019450954528   -4.06327587074486
H         1.26257408098771    2.93407484619840   -1.36124366594360
H        -1.00843175959696    3.51849527922849   -2.45298852849840
H        -0.12031939376349    3.30427661695722   -3.99570255912265
H         0.64792616145317    5.48209160578459   -3.44601475457232
H         1.38340281199024    1.49789543966900   -3.97760367139388
H         0.00990634515199    1.22950071795853   -2.81218545709893
H         1.49931704347149   -1.27957252481665   -0.92790276531504
H         0.58217851100707   -1.24018842225931   -2.48474663826059
H        -0.60514086904037   -0.94486555420861   -0.29333885990257
H        -0.89107292142744    0.31276468000367   -1.37972841579718
H         2.45206629348468    1.61925764003646   -0.36016930608324
