35
 energy: -49.719891545304 gnorm: 0.114296619193 xtb: 6.4.1 (79825abcba525fcdf90b791dcacef51065a7a4e7)
C         3.71223810116653   -1.49337393656193   -2.45899121539315
C         2.98202141403519   -0.29312811072108   -3.04352350393962
N         3.97782497763866    0.81594960433821   -3.10836097418231
C         3.70205950316405    1.58806517651466   -2.09711453950156
C         4.39465413556419    2.91259665914878   -2.04158151629224
C         3.59959717836675    4.02065964413251   -2.74258294826632
N         4.08090701881815    5.20472018458061   -2.95702702428347
N         2.37544346472045    3.70018002627040   -3.30538870646130
C         1.23970437915124    2.95866682176428   -2.72387183984580
C        -0.02367733588012    3.71835233546951   -3.20488785143526
O        -0.02422433226808    5.03841295702437   -2.66093416176602
C         1.04473344189320    1.47569633834551   -3.10995009594589
C         1.84893131454024    0.45767114167866   -2.25155497708180
C         0.90046247350071   -0.61730688481263   -1.63582315063824
N        -0.05398202521932    0.04677050563630   -0.73441375245620
N         2.69397051366876    1.14886688740891   -1.25771689002810
H         4.68510796903755   -1.72783331270888   -2.90713260065617
H         3.02074510651448   -2.30816273413665   -2.69794463985319
H         3.80446344099992   -1.26761866293603   -1.39462440156137
H         2.56514630555730   -0.54284412198577   -4.02869936909696
H         5.27414642892369    2.78211958778505   -2.67729857543816
H         4.67800652622684    3.28400197877231   -1.05479709533026
H         4.97595239629675    5.33608955867884   -2.46934534057299
H         2.15046542587394    4.29907079800330   -4.10327360756973
H         1.31855132887512    3.00717608230018   -1.62934459141601
H        -1.01485049462102    3.34406738612290   -2.92899994194666
H         0.02200538789630    3.64347529873860   -4.29860895476901
H         0.85271713909704    5.43149627561332   -2.83218375090532
H         1.38125958206700    1.37429002645254   -4.15040054213743
H        -0.02682045673404    1.25281779410238   -3.01763394707884
H         1.39585063409439   -1.34336240680786   -0.99171344542629
H         0.55276375860700   -1.05093971971661   -2.58173482137386
H        -0.33670679665452   -0.49934715794859    0.07565954059818
H        -0.89648276212914    0.32075383776498   -1.24246958439309
H         2.17280039846210    1.67015953830405   -0.55565624132852
