35
 energy: -49.726791143901 gnorm: 0.107512819767 xtb: 6.4.1 (79825abcba525fcdf90b791dcacef51065a7a4e7)
C         3.66593890620538   -1.42633791693286   -2.59263768222081
C         3.09524429740654   -0.13818885452246   -3.16749776757583
N         4.10565649058895    0.95382762506285   -3.05592165860375
C         3.80106192698723    1.56457142249870   -1.94729972202326
C         4.24274938726898    2.96023997978488   -1.64041796273478
C         3.61725906422061    3.86868802425956   -2.70569077951958
N         4.31005036604653    4.65502431473779   -3.46816062106012
N         2.29598618596364    3.80748235774270   -3.11618034292533
C         1.17335386872751    2.95955259792976   -2.67051367433099
C        -0.15740618901357    3.62654067817446   -3.10506679451390
O        -0.21263912460847    4.96241350159206   -2.60422841086853
C         1.22306537441197    1.53952698083839   -3.27658922785532
C         1.91271421068949    0.49880917222670   -2.34855762638687
C         0.81326250786351   -0.42892548287427   -1.74456181005804
N        -0.02281376644724    0.14785066814250   -0.68022741314587
N         2.66813908977576    1.15847740950096   -1.26517032840439
H         4.64724434194466   -1.58634489738187   -3.05493098187148
H         2.98532251185512   -2.26010279232606   -2.79447806622365
H         3.70075459953419   -1.31685411548665   -1.50675148419741
H         2.85090769701800   -0.26572922407518   -4.23086388834417
H         5.32726169499757    2.91332999516668   -1.76808804595194
H         4.10738128721865    3.19888333575271   -0.58367825258774
H         5.32069908025174    4.58236149753178   -3.29638501697098
H         2.16237334624823    4.27131844336877   -4.01779516506378
H         1.04320397004276    2.99563167227660   -1.58041313335982
H        -1.02326788339199    3.14205081691418   -2.64227018982477
H        -0.21825907177405    3.61291200577904   -4.20052583905514
H         0.60439188132858    5.49387522402397   -2.65785706968816
H         1.77068797286444    1.64165873026870   -4.22302930393131
H         0.20813781558984    1.22605544006477   -3.55602172883300
H         1.36502797641162   -1.29551578218804   -1.38121694773782
H         0.17216088723271   -0.84357504291930   -2.53242928982855
H         0.25079541732843   -0.10318366741682    0.26661804070919
H        -1.00506283087666   -0.09933533154834   -0.81092148750206
H         2.10900723381145    1.79014372604583   -0.69541360386152
