35
 energy: -49.719829916863 gnorm: 0.106930934568 xtb: 6.4.1 (79825abcba525fcdf90b791dcacef51065a7a4e7)
C         3.59319445881177   -1.45699247636548   -2.91483883442521
C         3.00142506443523   -0.07479820423251   -3.14900196129653
N         3.98784629700669    1.03875470289914   -3.03562190028525
C         3.71058855961852    1.65346417550672   -1.92202916176507
C         4.35989772367929    2.99513208817938   -1.79761178665014
C         3.57565664122135    3.89801234584741   -2.75734888463572
N         3.89669958161812    5.09979561652128   -3.12107016901159
N         2.38466788845994    3.40553527540355   -3.26432219946312
C         1.19420336723017    2.85169835284759   -2.59055231665658
C         0.08221408861998    3.72212180341207   -3.23123531165667
O         0.28367175152412    5.11280121519893   -2.97850711500127
C         0.98804406946354    1.36398669185244   -2.95177783987842
C         1.87500190973442    0.37212142096165   -2.14588658258057
C         0.89619468050190   -0.66261437359303   -1.50905480184598
N         0.03155877713084   -0.00318517550597   -0.51806547959916
N         2.64709409001350    1.17561507500442   -1.17747113433618
H         4.39664407602545   -1.48970972043882   -3.66027559926386
H         2.89311238262609   -2.28445338341224   -3.07083754353523
H         4.06530908004124   -1.50244443298011   -1.93127919685270
H         2.71466801985757    0.00345363377686   -4.20652805763206
H         5.38709671969333    3.07863776666001   -2.16169438688776
H         4.28855537800821    3.26716155762471   -0.74267851328292
H         4.65741381566483    5.53590487756346   -2.58504766695259
H         2.11895620296618    4.03274867148906   -4.02715000362155
H         1.21020259489980    3.15750663514763   -1.53566597584834
H        -0.92508341867065    3.45493615989796   -2.89568925451439
H         0.06803850072820    3.59684548203815   -4.32120055250029
H         1.22996464079081    5.31615827592447   -3.10516781980426
H         1.30430218006241    1.34510430382553   -4.00329791479424
H        -0.05496239808796    1.01997367724818   -2.93703319671425
H         1.43996069494527   -1.50392236856549   -1.08014605585023
H         0.34339947573114   -1.02136515992713   -2.38620702973237
H        -0.64523357629694   -0.68609892351561   -0.18643698503861
H        -0.52945598839078    0.74697212971993   -0.92490885248958
H         2.19619241707540    1.53817360973236   -0.33991969146424
