35
 energy: -49.724067977351 gnorm: 0.106631968206 xtb: 6.4.1 (79825abcba525fcdf90b791dcacef51065a7a4e7)
C         3.50268157142389   -1.47210969286244   -2.83947520964817
C         3.07270406015272   -0.03768661985657   -3.10972364448805
N         4.12437800211806    0.96732559746989   -2.77834114658662
C         3.72464252400383    1.63866645242131   -1.73702399054729
C         4.12990971213046    3.05514021540586   -1.47911796333360
C         3.64602583452438    3.89547822987205   -2.66697763852090
N         4.38501914194947    4.75269408720108   -3.29841621533905
N         2.42706172626091    3.65649900056494   -3.27937070575647
C         1.20637790780915    3.00912976252515   -2.76095866637496
C        -0.02809148024695    3.77077004203114   -3.30924805000386
O         0.19727314377279    5.17918796294853   -3.24587845583405
C         0.96185872365672    1.51860273031844   -3.08470403826266
C         1.83454634798857    0.49741811301609   -2.30013410834658
C         0.94111636416156   -0.66649425791337   -1.76967447278118
N         0.14405448339791   -0.24481314548854   -0.60718603217701
N         2.51031750445038    1.23300006226754   -1.21302349839180
H         4.54502315651571   -1.54646951923978   -3.17154796792158
H         2.99128890643683   -2.22573961462656   -3.44747320081750
H         3.39219948555275   -1.80884663025355   -1.80663949975038
H         2.79829440069161    0.15755430581868   -4.15533100099039
H         5.16847432706842    3.30187860141915   -1.24423322973596
H         3.48042740059998    3.40430025309432   -0.67398815418208
H         5.36487587579667    4.74810386320853   -2.98848513144802
H         2.31349528889350    4.19057532913219   -4.14410808408218
H         1.08643393993831    3.25200865033528   -1.69644789910909
H        -0.95961244419134    3.52131287794030   -2.79091667985757
H        -0.30311136012853    3.56213197655509   -4.35076307621566
H         0.20204506459312    5.56749667190730   -2.35029996397335
H         1.10205944154170    1.31818908546072   -4.15533391759377
H        -0.09699305137264    1.33392083017633   -2.85853953048911
H         1.59724963505600   -1.48166158549968   -1.46564367944603
H         0.27906587427953   -0.92830830726868   -2.60443387847849
H         0.77830500153000   -0.21052988497580    0.18713599186063
H        -0.63051882430136   -0.87824658937054   -0.40275181774317
H         1.99891897571121    1.65248254639595   -0.43922800697211
