35
 energy: -49.716762103550 gnorm: 0.135265000929 xtb: 6.4.1 (79825abcba525fcdf90b791dcacef51065a7a4e7)
C         3.66816604420602   -1.25906588654756   -2.93077632945668
C         3.05080675862681    0.12240345485412   -3.09169369801518
N         4.09742398214907    1.11630981156875   -2.71403705158263
C         3.60188988708803    1.69158408929066   -1.65652398258641
C         4.06296010068397    3.10597127350484   -1.50135281662598
C         3.68071806410881    3.75704892343802   -2.83601049034917
N         4.56118695173926    4.28802976266925   -3.62498367498483
N         2.43173495460321    3.47929182494581   -3.36601238648175
C         1.20672452587784    3.04570222951301   -2.66654368751237
C         0.02247007676533    3.85658785273504   -3.25360222942865
O         0.00319925683602    5.20901273256479   -2.79641349993335
C         0.85961101524492    1.56119331014522   -2.91557581763346
C         1.81097507057342    0.54535738342433   -2.22064022127108
C         0.99233814257173   -0.70956062172547   -1.78554145210310
N         0.02481341959244   -0.33152225151503   -0.74367539767477
N         2.45089684870878    1.20344061473682   -1.06436018911935
H         4.64744030119656   -1.19942415667502   -3.42041137117687
H         3.10086186507166   -2.05928373126520   -3.41756113247675
H         3.82434916027847   -1.59564822588225   -1.90380660150943
H         2.75922541748050    0.37632295126067   -4.11990555690125
H         5.12909277999100    3.28672874660225   -1.34212034368464
H         3.52541809160368    3.64734287466657   -0.72036665843026
H         5.38529085050529    4.52777288326951   -3.05967529327088
H         2.34180067394660    3.63438547024274   -4.37287055207016
H         1.23895018639276    3.21309585240028   -1.58141662124666
H        -0.85876890886137    3.33290151877455   -2.86915708382908
H         0.00289598121888    3.77348098572082   -4.34750781459716
H         0.74689115652941    5.57699808142831   -3.31058895962065
H         0.62701523127368    1.22705234697996   -3.93553621292586
H        -0.10069634801051    1.31091736469819   -2.44483534032109
H         1.75449607730298   -1.40662328072649   -1.43817666628805
H         0.43042841135306   -0.94175210609402   -2.69879129869623
H         0.37333403739955   -0.01820450090925    0.15896622639779
H        -0.71776437708232   -0.99967089673827   -0.53118848836670
H         1.86611003332871    1.73124692014029   -0.41961344886641
