35
 energy: -49.720122914334 gnorm: 0.110132563219 xtb: 6.4.1 (79825abcba525fcdf90b791dcacef51065a7a4e7)
C         3.69724082277555   -1.36936573361476   -2.63802512274775
C         2.97925052501689   -0.15322044179307   -3.20456287053678
N         3.92890130460356    0.99690043131148   -3.16896253557522
C         3.59505951496207    1.67771558125192   -2.11072399700990
C         4.10646428916082    3.03632199665010   -1.75043427040187
C         3.59043443524463    3.98588456568487   -2.83826068979806
N         4.12064220783580    5.10275303919404   -3.22701425757238
N         2.44381390858867    3.49968224068443   -3.44396567454189
C         1.28680072126275    2.89003252226744   -2.76018596458152
C         0.07422827533226    3.82110136329868   -3.01982167978450
O         0.21800135124204    5.13426113134922   -2.47816987107203
C         1.04174483884705    1.41653526664210   -3.15391809424492
C         1.79721768501815    0.35754451082642   -2.30083483278557
C         0.94489268425567   -0.71781314311013   -1.55824169465004
N        -0.02091957252581   -0.06569003107902   -0.66021936374604
N         2.67220911902212    1.02264180191162   -1.31514089405450
H         4.70526954008605   -1.35101024631792   -3.06909224863186
H         3.03383039941636   -2.23584665504229   -2.72879685805205
H         3.77586936970789   -1.15865338016212   -1.56949083319049
H         2.63704376424461   -0.44158053180831   -4.20778638146447
H         5.19091997500787    3.15380929947929   -1.81985858923987
H         3.76269739183449    3.27601476221432   -0.74229454842366
H         4.88178504141126    5.41414632111576   -2.61065934711468
H         2.23820777861963    4.11919997312382   -4.23125818817733
H         1.49370528249710    2.87374930358542   -1.68153623043010
H        -0.81354475043357    3.40028665979924   -2.53670509747432
H         0.01339875192855    3.89836967930967   -4.11263854807376
H         1.01642780823735    5.52293055082859   -2.88353209887599
H         1.32191830031653    1.03472505798984   -4.14477328540032
H        -0.04036236299968    1.23172518371370   -3.19016866333538
H         1.61523916126627   -1.38720943541306   -1.01973676233182
H         0.39190166925567   -1.24469668062842   -2.34581733368492
H        -0.40626779041246   -0.69920398995124    0.03588648481621
H        -0.73732635867049    0.44702727865189   -1.17682110688193
H         2.14167676132906    1.37845722795075   -0.52256012224469
