35
 energy: -49.722929920775 gnorm: 0.119969686531 xtb: 6.4.1 (79825abcba525fcdf90b791dcacef51065a7a4e7)
C         3.72084347450769   -1.39705275893147   -2.63238249978375
C         3.07265593434700   -0.12082998487975   -3.14870873829417
N         4.01602019835260    1.03214688980773   -3.06752876461301
C         3.65051342702987    1.63739798769064   -1.97441197146445
C         4.23182033101724    2.98562333802824   -1.68888507281226
C         3.56799628056633    3.89914026042717   -2.72625995696576
N         4.00630875939176    5.01565663966580   -3.21709409389836
N         2.42021660733687    3.42143788670741   -3.33651572663061
C         1.17980469927995    2.91177198824351   -2.72045896585698
C         0.02582873343985    3.86356634132200   -3.12918719555329
O         0.20123803913734    5.22181389510220   -2.72565145464968
C         1.03889276614033    1.40611494892530   -3.03575597711176
C         1.85647342057642    0.33361559418273   -2.26034726852356
C         0.84684280035231   -0.68096864843138   -1.63941139701615
N        -0.12307942575485    0.16390011697248   -0.92530382936244
N         2.66194935570728    1.01884841883231   -1.23019124966807
H         4.73552567231202   -1.43882567007386   -3.04584681939746
H         3.15704204957536   -2.26685039819185   -2.98554266159733
H         3.81889153550772   -1.41459725969786   -1.54498816816066
H         2.94643203546504   -0.32820244042762   -4.22005303288293
H         5.31262834492797    3.10283538804239   -1.80194481013939
H         3.88832530996995    3.41865701485502   -0.74736130448224
H         4.84406915931798    5.36183895839465   -2.73282879546089
H         2.34222700603411    3.66351780254929   -4.32708148784407
H         1.29837677930748    2.92203513148584   -1.62849046257212
H        -0.93534736342744    3.49260080051336   -2.75884592423140
H         0.02776295327846    3.81026573097181   -4.22512269943736
H         1.10537327438163    5.48898107587214   -2.97868985434880
H         1.20202786381635    1.19285647009183   -4.10063998856971
H        -0.02385905651758    1.23616092207009   -2.81644099468735
H         1.43621517180047   -1.35757770198390   -1.02112040416083
H         0.39593022964593   -1.40508132855368   -2.32935297011560
H         0.00995492604946    0.01803969471984    0.07240511511809
H        -1.07482767704754   -0.13284016833611   -1.14692412217432
H         2.13905148663321    1.50246702828113   -0.50290565617485
