35
 energy: -49.720207400071 gnorm: 0.112269982704 xtb: 6.4.1 (79825abcba525fcdf90b791dcacef51065a7a4e7)
C         3.77039622522243   -1.32591695491453   -2.65240027011064
C         3.03497149308360   -0.10853740071726   -3.19334564567466
N         4.00966246295594    1.01121588856243   -3.04498097878953
C         3.66372893799100    1.66443087535019   -1.97331471505919
C         4.18967434054451    3.01171499322316   -1.59205121033012
C         3.59177759145505    3.84985951951376   -2.72842940847021
N         4.21994151725167    4.74217821173163   -3.42758764345546
N         2.34253784053439    3.54297609744000   -3.24149124709894
C         1.17615626241123    2.91857662691432   -2.58759041534370
C        -0.00959197420544    3.80804613812534   -3.04308679083971
O         0.20767560048804    5.14680171753497   -2.59702148117019
C         1.02027467720594    1.49491513095334   -3.16652081693195
C         1.80399837248583    0.41569694136602   -2.36588549924495
C         0.87170909562062   -0.66200254114450   -1.73051392569559
N        -0.22951501255125   -0.12120301121903   -0.91851436844708
N         2.58248208477495    1.10397382280309   -1.31717440831923
H         4.36958212661009   -1.81853712401415   -3.42737078577717
H         3.00212618539774   -2.07582973936767   -2.43668277400442
H         4.42422771926559   -1.08624156767214   -1.81132492109933
H         2.86354862934353   -0.34896768089407   -4.25142025359835
H         5.28120264147465    3.05294366648530   -1.55289397607107
H         3.73916273346666    3.28995586698926   -0.63727621000268
H         5.10353216644206    5.02535492817431   -2.98568711537753
H         2.13517374161921    4.15583778250022   -4.03351794038696
H         1.20506795375689    3.01547552823669   -1.49381960138702
H        -0.97701440301510    3.46542609154389   -2.66186121400802
H        -0.07400359744598    3.83637166102997   -4.13806082643194
H         0.85023124828186    5.65074911962590   -3.13183594931488
H         1.23599477774453    1.48844849628959   -4.24331848263072
H        -0.05452735118316    1.27089329496106   -3.13427682283376
H         1.48756175395688   -1.29616808994681   -1.09333035114444
H         0.54980164931460   -1.29307746902642   -2.56824940147864
H         0.10779647459549    0.68267622216388   -0.39468646304150
H        -0.36006358765095   -0.66272210433299   -0.06253000962426
H         2.14375845196771    1.43350002146268   -0.45974364362616
