35
 energy: -49.727586128428 gnorm: 0.102621327856 xtb: 6.4.1 (79825abcba525fcdf90b791dcacef51065a7a4e7)
C         3.29137283546009   -1.46303935971771   -2.57637878993395
C         2.81471163543358   -0.12844450898088   -3.13057654438551
N         3.91493265776751    0.87214598148219   -3.24980066837164
C         3.92357507932016    1.59614191600892   -2.16786553510170
C         4.55846883033043    2.94510605760665   -2.04802969752701
C         3.94447894003781    3.90664961160072   -3.07261382073509
N         4.66095007564782    4.68299580025326   -3.82334714679188
N         2.58996038025624    3.78091809579047   -3.33238471729258
C         1.45592132385015    3.23686133850606   -2.56046201460272
C         0.16201071282250    4.01510822947159   -2.91367436610064
O        -0.92537785729859    3.69554512386559   -2.04539360295068
C         1.15461236177151    1.77113389276538   -2.94403409691163
C         1.84761112834609    0.62863404579342   -2.14754270266633
C         0.88443732231801   -0.31593734577762   -1.36372021432211
N        -0.40482389208126    0.34103874793411   -1.09784446309531
N         2.86753959420857    1.30604399641239   -1.32266776987221
H         3.68979186515713   -1.37649861342172   -1.55851305124000
H         4.18097011798895   -1.70306588729760   -3.16811017199437
H         2.51913848414537   -2.23499277601543   -2.58584980329154
H         2.32231515117704   -0.26522020499670   -4.10297180639302
H         5.59976387125437    2.75919677116865   -2.32336499947635
H         4.40409055753998    3.41007016014499   -1.07235057727734
H         5.66921819443310    4.60719878967097   -3.63936948456291
H         2.32516728460440    4.31817718341457   -4.16132554375038
H         1.62018401218520    3.31072255370471   -1.47689282662318
H         0.00961564345572    3.91756350827716   -3.99343747428296
H         0.36297445961412    5.06152373897298   -2.65185860281492
H        -1.19576873416063    2.75759913530958   -2.04904829291492
H         1.42313760795966    1.73544712863907   -4.00831360622915
H         0.07197514958722    1.60207660503848   -2.86826347273531
H         1.33754014723008   -0.69016089914432   -0.44606127636943
H         0.87956779821222   -1.20821448869022   -2.00207631221844
H        -0.31333463897195    0.92289214755235   -0.26870462072959
H        -1.08494897262438   -0.38766348877020   -0.87554283861615
H         2.60711121066879    1.82130573830164   -0.48425505377771
