35
 energy: -49.719686974870 gnorm: 0.119843936405 xtb: 6.4.1 (79825abcba525fcdf90b791dcacef51065a7a4e7)
C         3.70023653679671   -1.18967865772248   -2.68067351601520
C         3.00431290516755    0.04577562537523   -3.23278535524907
N         3.98551734492565    1.15590577131292   -3.05748297511234
C         3.63950829896482    1.65655709556358   -1.90663353674606
C         4.12864440317326    3.04381766401610   -1.63569269457394
C         3.67014243696209    3.84485781922873   -2.86020598535639
N         4.33747630993847    4.71305613375370   -3.55341734549620
N         2.36576619733380    3.64956462950446   -3.28266667603901
C         1.20127216114470    3.01360316508845   -2.63659111899058
C        -0.04301600993283    3.87116826788080   -2.98438541380520
O        -0.10060165150053    5.14568165341470   -2.34349113439747
C         1.02680527830831    1.56318005792748   -3.13869236343408
C         1.76655985434649    0.44611765066105   -2.34819477253767
C         0.94193405447823   -0.75947209798101   -1.79970391859931
N         0.24293655516815   -0.33909822359149   -0.57528965782052
N         2.62628980742827    0.96578572079727   -1.26636000798647
H         4.13332097919632   -1.02883742487540   -1.68626633101743
H         4.51290782153130   -1.34319734760836   -3.39840569712364
H         3.09159364294344   -2.09625947027793   -2.68424128157474
H         2.78537321331657   -0.26744422173785   -4.26267523564317
H         5.21232380278387    3.00324053243253   -1.49909257808094
H         3.66377367336936    3.31954622186632   -0.68709216521765
H         5.27882889370047    4.86839819221259   -3.17142032609426
H         2.16490404258032    4.10414307420982   -4.17648904425788
H         1.25410070560260    2.96206165027939   -1.54063833698437
H        -0.97970395271167    3.39332150015120   -2.67958095740328
H         0.06258569874683    4.08064199254355   -4.05624751767586
H         0.53617840398488    5.77227272351284   -2.73688921700811
H         1.34911768352387    1.49302268294027   -4.18619552366607
H        -0.03632011329763    1.28828677595377   -3.16365146794279
H         1.59285429210478   -1.51123526223275   -1.35406016451250
H         0.36744567280273   -1.09634527151853   -2.67157562603322
H        -0.27552834631265   -1.12911618212432   -0.19917490005638
H        -0.43997323942357    0.36391165162794   -0.86235483413721
H         2.10795345673036    1.28599249166666   -0.45085492847216
