35
 energy: -49.730583767853 gnorm: 0.097477191452 xtb: 6.4.1 (79825abcba525fcdf90b791dcacef51065a7a4e7)
C         3.76736292051762   -1.28174919419516   -2.74525113336238
C         3.05061901461121   -0.06651542345897   -3.31531211132694
N         3.97673061173505    1.09587299471028   -3.18472690645554
C         3.67189755729122    1.63785057115899   -2.04097625292035
C         4.08060765781572    3.00994275473809   -1.60799350048369
C         3.63942689131950    3.90744862339103   -2.77038971941396
N         4.38571533066463    4.79204600651152   -3.35364425772134
N         2.30656940799031    3.81176393276373   -3.13418255855829
C         1.21562998256406    2.96770362043571   -2.60947278978086
C        -0.05902593100499    3.81666719027101   -2.85267024904425
O         0.09351354570217    5.12837482649362   -2.30989889036100
C         0.96679690055110    1.51112023526609   -3.05971548638159
C         1.85040951622648    0.40534396485744   -2.41439440196896
C         0.85415357573174   -0.66852502671062   -1.87720162649963
N        -0.17965927314256   -0.15613178074226   -0.96441132534973
N         2.66291568898270    1.00488413061184   -1.33738823675240
H         3.64587553050915   -1.36063870862794   -1.65837720147817
H         4.82452186018963   -1.13253115359252   -2.98874864689146
H         3.44046137910628   -2.25306384223996   -3.12212101203816
H         2.84210816959210   -0.25763213222177   -4.37677904642693
H         5.17311190585175    3.04011166252754   -1.62183048480168
H         3.69853411837437    3.38439999147813   -0.65627106370405
H         5.36510695985034    4.75747424136686   -3.04413755650815
H         2.21137457636127    4.05555579384811   -4.12282257158025
H         1.43921367509907    2.83356201261288   -1.54243189860436
H        -0.90394037428730    3.31582473119947   -2.36903400992007
H        -0.16934888897720    3.91625649762624   -3.93979036663683
H         0.93319185166843    5.44951143834654   -2.69026566214972
H         1.09762624149492    1.40629751258083   -4.14505695179220
H        -0.07954012977887    1.43080265830113   -2.73544277609872
H         1.43152927565254   -1.43430385792192   -1.35983961518379
H         0.36205642518729   -1.10422167893303   -2.75566024157310
H         0.28009641820226    0.37706130079873   -0.23043150165113
H        -0.69701205555407   -0.93447713982113   -0.55268364070470
H         2.12657948359462    1.52040360843405   -0.64252376070511
