35
 energy: -49.715193270633 gnorm: 0.127358841972 xtb: 6.4.1 (79825abcba525fcdf90b791dcacef51065a7a4e7)
C         3.68267237249618   -1.29156183386635   -2.76992112907130
C         3.00219945663951    0.04518182459747   -3.02596299252235
N         4.01856753266383    1.10785073074914   -2.77374734883645
C         3.64977553171619    1.75391310560987   -1.70537274493515
C         4.03043599388649    3.19798910466923   -1.62232422455350
C         3.64441706177101    3.79039659726543   -2.98297294355632
N         4.40062153135308    4.60182470938761   -3.65333405700397
N         2.40227298213199    3.47788043571068   -3.50968118508362
C         1.23176331322997    2.93515053135091   -2.79326069229622
C         0.08396161432765    3.92897576228797   -3.10868816936099
O         0.28774577885486    5.14906637248846   -2.39573875135922
C         0.84856383755365    1.44984298339319   -2.97571935265597
C         1.75114981776807    0.47026370542762   -2.17215563277794
C         1.00902266368729   -0.80275536877389   -1.65935326368435
N        -0.25830564206899   -0.39986591011499   -1.03001947209212
N         2.51386281667586    1.20158321334053   -1.14113788961781
H         4.55135108172299   -1.36260801188730   -3.43522363265935
H         3.05599661685809   -2.18741123442449   -2.70768430819984
H         4.31911468818174   -1.28978606381650   -1.88262992070679
H         2.76218362156843    0.13688503278480   -4.09399732784819
H         5.09749888011399    3.37477051249716   -1.46486862438479
H         3.38533539823473    3.53412728224141   -0.80818028502083
H         5.35256712510261    4.71614949287583   -3.28329758180289
H         2.52661996414362    3.54060209578169   -4.52284919086097
H         1.39933705591781    3.12688023376209   -1.72474833839423
H        -0.84566868302622    3.51269977724889   -2.70727889016932
H        -0.02887900992056    4.09273469198074   -4.18774763515126
H         0.96087766516294    5.68019959789882   -2.86227730390400
H         0.93573677035606    1.31058469344893   -4.06157303222942
H        -0.19807151859082    1.29523881478011   -2.68063150114678
H         1.67088580396375   -1.24155410309399   -0.91313867373517
H         0.88926085073663   -1.48225450609479   -2.51235897009406
H        -0.23989417294750    0.37457766308063   -0.37100907409722
H        -0.78322288459429   -1.22730824595622   -0.74227626473021
H         1.90780140623266    1.65458474016773   -0.46015869770748
