35
 energy: -49.720534880247 gnorm: 0.118193154383 xtb: 6.4.1 (79825abcba525fcdf90b791dcacef51065a7a4e7)
C         3.78548177584370   -1.33064965887730   -2.68909251445597
C         3.03414470679066   -0.10705439793298   -3.19286994494997
N         4.02365033323413    1.00718022572617   -3.12046945384964
C         3.72227927540748    1.67820472907209   -2.04635119380506
C         4.25575846003116    3.04655487468886   -1.76320318782084
C         3.59968618702789    3.94541207980793   -2.81816626433881
N         4.00949713607014    5.10831120098031   -3.21737226156669
N         2.41307566716613    3.52144262836260   -3.39280982693289
C         1.22696185835810    2.88006888968929   -2.79307594576699
C         0.08240228180682    3.91576781366186   -2.94120745255679
O         0.20722483036286    4.83855825418711   -1.85893064190214
C         0.92192228425716    1.40751157141026   -3.14634259891952
C         1.82079605560921    0.42368505937142   -2.34380721712041
C         0.90813958701501   -0.69699891229221   -1.75608093488009
N        -0.22357250165004   -0.03353938300498   -1.09008454962882
N         2.68292067373445    1.09033290782390   -1.34787612362294
H         3.96503457684995   -1.19153471951809   -1.61639241163835
H         4.72841309428456   -1.53305549529168   -3.20779713844620
H         3.11866379108233   -2.19468056307894   -2.72303424681854
H         2.75804370421249   -0.28395552465041   -4.24129192758613
H         5.28590505847741    2.99363810190885   -2.12467926847309
H         4.03239801576352    3.31312554262441   -0.72830020156106
H         4.91180009573616    5.44079352416259   -2.85473961658690
H         2.35058177304701    3.96455450701117   -4.31240319922383
H         1.44978134026092    3.02789475229526   -1.72768451887900
H        -0.86005042575435    3.42301729975773   -2.68119318128813
H        -0.02323953248891    4.39520873243492   -3.92247985882656
H         0.93838197385884    5.46430455394405   -2.02238724275365
H         1.10157738721931    1.19571884563120   -4.20885758460894
H        -0.15653486778874    1.26635195602661   -2.99327725648160
H         1.49412926522856   -1.25845793800191   -1.02887860728770
H         0.45612985441923   -1.39167665074886   -2.47496253158464
H        -0.16853428677390   -0.08618788233125   -0.07588759175640
H        -1.12098560259798   -0.36306303446538   -1.44933234125453
H         2.20914679708097    1.70941547515907   -0.69325517919714
