35
 energy: -49.704567042344 gnorm: 0.130719980413 xtb: 6.4.1 (79825abcba525fcdf90b791dcacef51065a7a4e7)
C         3.78966254214084   -1.29700312113480   -2.23813970866448
C         3.16573122375238   -0.18946204132970   -3.07452891252766
N         3.96931482607143    1.06507707161259   -3.15369337089685
C         3.68524386134867    1.64081278023263   -2.02114734261180
C         4.05173299686999    3.06834065917010   -1.76618693068790
C         3.55695474391257    3.91372758181307   -2.94594861530347
N         4.30651162176755    4.84370334527448   -3.44889430969431
N         2.36198972650910    3.47526733220621   -3.49167846363255
C         1.21180762277548    2.90242163327258   -2.76584382674924
C         0.02518888565007    3.87565467573866   -2.98807173844487
O         0.18427398647863    5.07005369452152   -2.22220695334684
C         0.96135931382322    1.43280023395260   -3.17051668033989
C         1.86870454647894    0.41531513059878   -2.42125013181598
C         0.91880870424504   -0.64898384537047   -1.78937820672255
N        -0.28237140619609   -0.01231187398482   -1.22695744389937
N         2.59671798393208    1.11804303263054   -1.34620275067851
H         4.76662654651217   -1.56497807219243   -2.65767330654034
H         3.14253702535076   -2.17723207101183   -2.16352310165351
H         4.11925461173583   -0.99673160729478   -1.24136804610612
H         2.99354628428329   -0.50063174987411   -4.11387494137829
H         5.14431937920394    3.05485329037814   -1.79339419906055
H         3.60456196529898    3.37340520817783   -0.81805841205405
H         5.13538482271441    4.99648438133308   -2.86082565795411
H         2.12140123579663    4.18994143628167   -4.18252121574969
H         1.42014744345722    3.07072804283556   -1.70056106612613
H        -0.95572327595470    3.47148740714256   -2.71772429756361
H         0.07945874038535    3.95413515481896   -4.08114764199601
H         1.10452605032350    5.20741571042380   -1.92702044523374
H         1.14409944701385    1.36669154519304   -4.25139867626640
H        -0.11087139153101    1.25679162496621   -3.00999519988060
H         1.39760517295281   -1.24220007184836   -1.01073078769528
H         0.51830417877102   -1.35961631343185   -2.52305274273386
H        -0.10461207133025    0.14567164529532   -0.23809983795103
H        -1.14513173363336   -0.55311115799309   -1.30554392249971
H         2.28996804399561    1.52173275009730   -0.46348390604117
