35
 energy: -49.714979899630 gnorm: 0.121343168104 xtb: 6.4.1 (79825abcba525fcdf90b791dcacef51065a7a4e7)
C         3.68379399148104   -1.47677356975807   -2.80236064604452
C         3.08187918811666   -0.09705296133579   -3.02496795639992
N         4.09444885222220    0.99462459954732   -2.93102779026737
C         3.71348281774571    1.71229307008690   -1.91385265473238
C         4.31850640809957    3.05317597423144   -1.64341889467072
C         3.59841681155149    3.89155946330671   -2.70638939207594
N         4.18070426267845    4.88637601458104   -3.29877959610180
N         2.37836254937093    3.50565008935153   -3.23606039889384
C         1.13055422394885    2.92363987792541   -2.70488674546059
C        -0.08605034262035    3.71782011476520   -3.24690418052265
O         0.10363969145753    5.07295381330329   -2.83937956947349
C         0.98447169492568    1.43492783820291   -3.09046148154313
C         1.84246656967842    0.46100258872755   -2.23298492144699
C         0.98186832395743   -0.57457406617421   -1.44479194312077
N        -0.15490827563584    0.14202568160467   -0.84585477646432
N         2.60062126261999    1.24497459312954   -1.23792397899570
H         4.63368212533538   -1.49987316764867   -3.34958694088385
H         2.96877512913005   -2.20156410488304   -3.20555883609203
H         3.89890084317868   -1.76475865745091   -1.77127321812233
H         2.80034963263779   -0.36694569144016   -4.05191169038029
H         5.40976247477524    3.06563957140174   -1.70401579942916
H         4.05011712962052    3.36152675673519   -0.63106471519666
H         5.07151310168362    5.12930384751865   -2.84751111169401
H         2.26260407149483    4.07875094790322   -4.07514381570279
H         1.15831339243549    3.08449764453664   -1.61864824180600
H        -0.93817890278658    3.34408308399890   -2.66999418422924
H        -0.26158027514457    3.50382822059025   -4.30865558091164
H         0.89907208886677    5.39500138218714   -3.30461061478634
H         1.41051063980797    1.23268576513744   -4.08225741391659
H        -0.07803106240844    1.20308662814172   -3.24461202720132
H         1.53238682064381   -1.19392677754311   -0.73713740457371
H         0.70610222159296   -1.35221581888659   -2.16791507511119
H        -0.34191510369432   -0.33898380731210    0.03053261323501
H        -0.96096848862527    0.03741791214954   -1.46417446064000
H         2.20891088307369    1.69465293628087   -0.41293559702004
