35
 energy: -49.713858638039 gnorm: 0.134537751195 xtb: 6.4.1 (79825abcba525fcdf90b791dcacef51065a7a4e7)
C         3.63823049634053   -1.27700443305158   -2.85972748011030
C         2.96704830542570    0.05904443546574   -3.14252117423891
N         3.97985482821846    1.14274218098288   -2.98219618288562
C         3.73301241613223    1.72737993666178   -1.84549221996329
C         4.22114162959292    3.11727278593858   -1.58648907481873
C         3.54287077999008    3.88018206382945   -2.73070945761610
N         4.20320712998401    4.78579148690089   -3.38145694694790
N         2.42431271735331    3.30944999584439   -3.31474937734595
C         1.20461724929610    2.95057772500728   -2.56544258986646
C         0.16647796411521    3.78524417307455   -3.35931323577307
O         0.20806941824220    5.18446767373137   -3.07844011530683
C         0.84152274317114    1.47159699384991   -2.82438257840104
C         1.81779777713646    0.46655934660458   -2.14855862855572
C         0.98838616487424   -0.66712888560424   -1.46949762996344
N        -0.24878708146815   -0.27438967298136   -0.77692257968353
N         2.64431462592002    1.20318811888702   -1.17192931403342
H         4.53959320357148   -1.31711836307701   -3.48279554681922
H         3.04673152069007   -2.19011334595581   -2.98423906075945
H         3.95255474281252   -1.19190784134813   -1.81746719710159
H         2.66608663934269    0.11072605609036   -4.19772990430217
H         5.29153146637850    3.32895052810394   -1.52226101989898
H         3.82271788602120    3.45111859684068   -0.62639559405070
H         5.11957313792246    4.92888359947196   -2.93874309298594
H         2.32698204487496    3.51485671294860   -4.31186542794837
H         1.17601941939171    3.27672188239374   -1.51693315654122
H        -0.83689528306401    3.50299100172844   -3.02434626011764
H         0.29340300038325    3.58225922102664   -4.43011035907826
H         1.17963280505203    5.25631949654403   -3.01704659372363
H         0.87301965919030    1.30459653757873   -3.90936598376919
H        -0.16626757972078    1.31240232767501   -2.41763870091352
H         1.70173535314980   -1.01634130439607   -0.72342325528937
H         0.88959523243523   -1.33125689337474   -2.33716982547639
H        -0.48538057485737   -1.04686257917156   -0.15909925402671
H        -0.94189435706763   -0.34201241719070   -1.52393298898221
H         2.28638576133534    1.55263989003141   -0.28534946814831
