35
 energy: -49.720973050147 gnorm: 0.127417015888 xtb: 6.4.1 (79825abcba525fcdf90b791dcacef51065a7a4e7)
C         3.64018280272697   -1.44794566795726   -2.54977068110859
C         2.99016511516233   -0.17066265548076   -3.06115071387436
N         3.98417612983949    0.94182701177628   -3.04733626827908
C         3.63123334820623    1.56849990289204   -1.96219071043932
C         4.11227195172991    2.95709504417032   -1.68369421519426
C         3.61019051678983    3.96429539623217   -2.72522378807633
N         4.25587828192234    5.06102365086615   -2.97000784405968
N         2.49611750712322    3.61406175592384   -3.46966153194415
C         1.32524481805206    3.00567894758932   -2.80872698718921
C         0.14347755533863    3.81777609885966   -3.39911346242079
O        -0.13404295666105    5.06743059560804   -2.76682242212504
C         0.97953837844469    1.52736845240218   -3.09395785978792
C         1.77050733899024    0.45591742666671   -2.29002225536008
C         0.78263967730699   -0.63508600457702   -1.77221386335974
N         0.12023296365498   -0.12323868516025   -0.56236608878689
N         2.58065616142468    1.06467750795132   -1.21641759388793
H         4.46192602958075   -1.62916765670517   -3.25274603092682
H         2.93819956676719   -2.28609055768982   -2.61201821701465
H         4.16046117120410   -1.24794513240580   -1.61080429872778
H         2.70359750949368   -0.32782081349041   -4.10990937666341
H         5.18899303372929    3.01749509287515   -1.86171300197248
H         3.79153241519795    3.33218805836829   -0.70983315219380
H         5.16482337853230    5.18350211798233   -2.50631032068150
H         2.33759881639829    4.11142193709120   -4.34909899786094
H         1.41260727951978    3.15676715928211   -1.72424552890332
H        -0.77446657734803    3.25557510919017   -3.19927299014496
H         0.34757231243202    3.96562006246784   -4.46701178273801
H         0.70614675630636    5.56379148949957   -2.79078844456793
H         1.03490774706259    1.32461566863134   -4.17187053619225
H        -0.09815364033023    1.40663357405419   -2.91952201821552
H         1.22125432702459   -1.63260235002894   -1.76755778534951
H         0.05596131573591   -0.66822011626200   -2.59350638095923
H         0.78337682242640   -0.09724313451512    0.20832255886028
H        -0.51240728958645   -0.87957097319403   -0.29642837671384
H         2.06663442094537    1.64851150210704   -0.55977995365270
