35
 energy: -49.721671604683 gnorm: 0.119467895822 xtb: 6.4.1 (79825abcba525fcdf90b791dcacef51065a7a4e7)
C         3.66446821184648   -1.45421951400536   -2.61373646801573
C         3.09424530937167   -0.15299643855793   -3.15885002508438
N         4.02226144574689    1.00585379752126   -3.01142485044269
C         3.66415565332374    1.67194178682553   -1.95174779783642
C         4.03017295425236    3.07556997812628   -1.58703670033749
C         3.54979634874423    3.84714239765434   -2.82204135788877
N         4.23508564716172    4.77626946829370   -3.41089300560709
N         2.27440744491434    3.57590125320041   -3.28875456945784
C         1.10041353215281    2.93706796561596   -2.66302515835555
C        -0.04198991242919    3.90487595934392   -3.06662630000091
O         0.33148033760438    5.22815201356380   -2.68204026824245
C         0.94676217320556    1.46590407219805   -3.10837848880385
C         1.83881353472192    0.40937626545911   -2.39567586201296
C         0.97595649547982   -0.67954672507628   -1.68573149488030
N         0.02298231157537   -0.06505371659277   -0.74831988789066
N         2.56275351633159    1.11960470318046   -1.32280894292383
H         4.59915106660664   -1.53652134765584   -3.18107415923444
H         2.97866822236714   -2.27819702893386   -2.83707815530579
H         3.84775504098988   -1.27236842801901   -1.55275400384741
H         2.94791701672004   -0.24082788568352   -4.24401732990692
H         5.10112076061887    3.23026462466357   -1.43273991223531
H         3.52544795370778    3.20496408121647   -0.62761821119171
H         5.23445256860606    4.87146244801471   -3.19088934291074
H         2.16906855732596    3.91700033584516   -4.24711813656406
H         1.28616693932929    2.91941852921237   -1.58055388705734
H        -0.95491930002687    3.63289537167262   -2.52698374825773
H        -0.30409932375990    3.90863113871466   -4.13208576829139
H         1.20215271289663    5.40343686230160   -3.08709840940888
H         1.27771565779370    1.43456245004280   -4.15506741474488
H        -0.12370133101889    1.22197710575971   -3.07624771436641
H         1.61015462273805   -1.43871765359909   -1.22868052075258
H         0.32708309674526   -1.22616104806650   -2.38132965420686
H         0.57134163526061    0.55982973392633   -0.16247070553164
H        -0.49349746729534   -0.84433954575750   -0.33727570415804
H         1.93400412958870    1.65126031006707   -0.72425233415728
