35
 energy: -49.720497016913 gnorm: 0.117198500160 xtb: 6.4.1 (79825abcba525fcdf90b791dcacef51065a7a4e7)
C         3.33672553403757   -1.46365203989620   -2.75746012657059
C         2.82490403532235   -0.04389831415738   -2.95194019123075
N         3.92979913238606    0.92716334569122   -3.20119516071504
C         3.80851801928616    1.75611667445551   -2.20472355359462
C         4.39770942547287    3.12904834035519   -2.13354044402288
C         3.52782937775989    3.85259657134572   -3.16848432544021
N         3.97280192360640    4.74196872511182   -3.99954473343270
N         2.26915180795265    3.31585338634312   -3.38213675246525
C         1.17985668769758    3.02494467461124   -2.42992080327010
C        -0.03852907495235    3.94374074988028   -2.70556857293196
O         0.36629899056848    5.31172442223761   -2.76196765010764
C         0.83981810339257    1.51916363163415   -2.48709344708387
C         1.90135383965685    0.58209624707176   -1.84288988724624
C         1.16655631649273   -0.30458415648984   -0.79019480003912
N        -0.05537729069927   -0.80678563549381   -1.43763119896115
N         2.95790924212291    1.37424729352766   -1.18278058013958
H         4.04704171335506   -1.50933252065664   -1.92340863886639
H         3.91641070523983   -1.77115673824542   -3.63412883826601
H         2.54792135512057   -2.21495972158896   -2.68214488633231
H         2.24875151190203    0.06989769640831   -3.88027910507322
H         5.44191081593518    3.29923839387310   -2.40803255254563
H         4.28351645411847    3.32405221210305   -1.06540775112266
H         4.97091735325560    4.96726422027548   -3.90360156972272
H         2.04991419127489    3.69962793823067   -4.30439352617444
H         1.63405766791343    3.36432807496215   -1.48913376589902
H        -0.73986897692467    3.98935470600311   -1.86612274980574
H        -0.63058208889669    3.62825623541388   -3.57382087583772
H         0.88179164486756    5.48097442215289   -3.57344101347555
H         0.86073537191251    1.28427196059345   -3.55968776620207
H        -0.09171610980892    1.31790238955352   -1.94105061151997
H         0.77227446778862    0.33791923844906   -0.00331834352372
H         1.78889319619670   -1.08054903861914   -0.32731686084372
H         0.06017597424562   -1.01739310111151   -2.42590670307073
H        -0.33474287383379   -1.66469812626730   -0.95915851211099
H         2.77578530863091    1.98876621862993   -0.39192609145460
