35
 energy: -49.731140894771 gnorm: 0.105110709521 xtb: 6.4.1 (79825abcba525fcdf90b791dcacef51065a7a4e7)
C         3.61254926490873   -1.42633973526652   -2.72729016121714
C         3.08298690828835   -0.09159203035497   -3.23077475419358
N         4.11846965364695    0.97948496569683   -3.15045310560668
C         3.79072519122211    1.67160051239628   -2.09765299585823
C         4.38700835396750    3.00524853673244   -1.77674133752465
C         3.65552558245530    3.90299114853778   -2.78188478684359
N         4.34072651448742    4.73047570892875   -3.50673911510169
N         2.31131144640656    3.77786199133436   -3.09081986925529
C         1.21315769250569    2.96674609677697   -2.53041260491565
C        -0.07275243570755    3.79741270309537   -2.77751572764295
O        -0.34808664129772    4.97786062221545   -2.02307571560224
C         1.07570533375053    1.54348781118979   -3.11497589518602
C         1.90284768221080    0.46804662974286   -2.35391511780199
C         1.00953622827604   -0.60912455982194   -1.66399233126105
N        -0.35834181943773   -0.16213477490271   -1.35803194613305
N         2.76505034302868    1.12191384933830   -1.34961376898948
H         3.86435703877903   -1.32599439028074   -1.66483953085795
H         4.54327279119921   -1.63362533925362   -3.26574023607597
H         2.96388241117622   -2.27405048624365   -2.95743243074245
H         2.85665661212155   -0.13867196612124   -4.30468001348928
H         5.46560702155112    3.07232913645604   -1.94042472288398
H         4.15142670279082    3.31798782465324   -0.75759001051140
H         5.34477653033290    4.80768737965408   -3.30150878933585
H         2.07924064858643    4.53684190058707   -3.73579912198494
H         1.35347885031942    2.89636007535281   -1.44325315699264
H        -0.96050047231997    3.16812169871259   -2.65700080956836
H        -0.16286283424651    4.12739213483768   -3.82006693327542
H         0.38348940137809    5.58926150934468   -2.23248610043754
H         1.35925694217809    1.57931106193862   -4.17534629910111
H         0.01482863255803    1.26807490614944   -3.18648276015606
H         1.52988837288018   -0.91258686635475   -0.75592424969220
H         0.91156903076337   -1.40535871631018   -2.41238682219448
H        -0.24400431588013    0.59547700668189   -0.68919125909771
H        -0.87516647223507   -0.86625211599427   -0.82878140657660
H         2.26143984352382    1.59566860877025   -0.60249504855789
