35
 energy: -49.720803425311 gnorm: 0.106514508215 xtb: 6.4.1 (79825abcba525fcdf90b791dcacef51065a7a4e7)
C         3.51125077523506   -1.56621038575196   -2.49493943648951
C         2.99799908494471   -0.25402689152048   -3.06959728778411
N         4.08804816238564    0.76458862198309   -3.07946944684275
C         3.89039686391824    1.62246290012380   -2.12040005265247
C         4.46169881537181    3.00459358553070   -2.14239449578358
C         3.58943854946969    3.92846334163146   -3.00085174831960
N         4.00917589369872    4.82801653946315   -3.83408005246868
N         2.21602683772620    3.80760845046114   -3.13178755535812
C         1.13483233391128    2.95576529442240   -2.59953888734604
C        -0.17967654644719    3.63076938229426   -3.06971729455614
O        -0.24251458898688    4.99866753562881   -2.66554902838672
C         1.15381215967916    1.48066637953338   -3.05779046061477
C         1.91161632984561    0.44841980302090   -2.17452857130095
C         0.97301510835642   -0.47428106897684   -1.33670553872395
N         0.21272454021592    0.30958606901653   -0.35079857200595
N         2.85942590520837    1.18016777428271   -1.31095524930671
H         3.71618455681102   -1.30883449823313   -1.44897696752861
H         4.38382570966351   -1.92370096830996   -3.05167595644247
H         2.77401403481192   -2.37164949975723   -2.48506555552946
H         2.69041382235653   -0.38633994902690   -4.11582813735089
H         5.43857546046901    3.10894519359167   -2.62144553386158
H         4.55407395709551    3.38682271838505   -1.12389475943434
H         5.01098736717367    4.95401771093737   -4.02563952957355
H         1.82526113614231    4.44254200373972   -3.83183551362248
H         1.06414568931250    3.06858442751548   -1.50920172358037
H        -1.07095750409755    3.18072195368675   -2.62060353985964
H        -0.19463342989587    3.63424181292943   -4.16684243281663
H         0.49384443199108    5.48277009350268   -3.08541492063937
H         1.58618769124716    1.39063720834089   -4.06328355736563
H         0.07383306047681    1.28071075443494   -3.04842137438176
H         1.48677796401957   -1.27237203056912   -0.80140944370213
H         0.42076076794703   -0.97616179896741   -2.14095151799319
H        -0.77476878216157    0.06687140246995   -0.36932070076367
H         0.51644228160210    0.05739700680076    0.59108852212049
H         2.33368935410072    1.90730102856582   -0.83019355708771
