35
 energy: -49.722462281083 gnorm: 0.113867906638 xtb: 6.4.1 (79825abcba525fcdf90b791dcacef51065a7a4e7)
C         3.64334450408555   -1.41099424116185   -2.70873394760911
C         2.95626710928231   -0.13678849530557   -3.17757162271608
N         4.04057772031052    0.87677508757040   -3.02643814313879
C         3.73606357169152    1.59472288030506   -1.98401285679178
C         4.31821625032593    2.94140818864109   -1.69299424662509
C         3.55998544678463    3.88113932132657   -2.63814696277783
N         3.97459073579645    5.08015961433312   -2.90290650734680
N         2.58754171343637    3.40468158531838   -3.50148414625266
C         1.36611440399066    2.96539141729686   -2.79931146980695
C         0.08589853926140    3.71720227566672   -3.24703861906081
O         0.08351640511629    5.08185538301300   -2.82732184040293
C         0.93959611687826    1.49270893651948   -2.98788500647237
C         1.82031216765334    0.44049447209459   -2.25498967285409
C         0.90466540762630   -0.63300354439854   -1.58903960483407
N        -0.10419966742072    0.10266735350323   -0.81091266423733
N         2.63618571278054    1.16715878172320   -1.26208170925004
H         4.51922554196428   -1.44319964370867   -3.36757603587767
H         3.04728737871092   -2.31895719143007   -2.84823752620554
H         4.00360535272568   -1.28220046769701   -1.68600625153070
H         2.73432194863378   -0.25257138164568   -4.24717390445520
H         5.37855115907895    3.08573390673930   -1.91554108384412
H         4.04880161335599    3.24861542016824   -0.68056475969813
H         4.78998734444594    5.38250879562804   -2.35526528391602
H         2.54169989556138    4.08523754765590   -4.26348658476139
H         1.55248833686322    3.11181690684124   -1.72675181209776
H        -0.80624010674416    3.27609329417179   -2.79081598268658
H        -0.02065560006452    3.60009142510674   -4.33278748044679
H         0.67079974159816    5.56221462528606   -3.44150466443197
H         0.77971138608599    1.16449880397145   -4.02363843450896
H        -0.01561543596477    1.43981339994642   -2.44825752583906
H         1.52972927583580   -1.25258178358056   -0.94649676283998
H         0.45129362001513   -1.33766406115393   -2.29726856111060
H        -0.19011556208126   -0.18221430878336    0.16163935446888
H        -1.00305679985572   -0.24795112188983   -1.14575236203119
H         2.13136278145725    1.81701715243734   -0.66283938414912
