35
 energy: -49.719300533742 gnorm: 0.111469630317 xtb: 6.4.1 (79825abcba525fcdf90b791dcacef51065a7a4e7)
C         3.69568696289841   -1.46751379813858   -2.36480818890647
C         2.98877017125198   -0.28407439969264   -3.00918720170695
N         3.97585787081266    0.80557378528331   -3.26257767759951
C         3.88755839364821    1.61113950311744   -2.24370795147817
C         4.49370098243929    2.97748671902081   -2.19040305043064
C         3.58073142035249    3.79690150360435   -3.11038577207017
N         4.08057171561635    4.69115463388572   -3.90418414145799
N         2.19616169328425    3.77494136144757   -3.08815332423167
C         1.11407868111936    2.91248828155920   -2.57514451999754
C        -0.18143043923198    3.66816639811860   -2.96914776818052
O        -0.29490076954026    5.01162355928221   -2.49936770945186
C         1.08574148709574    1.45031281979419   -3.07264979487830
C         1.89598796224609    0.47577564495302   -2.17058012549560
C         1.02512944723844   -0.47617311379416   -1.29325714087416
N         0.14661272469948    0.38513481478186   -0.48649880230190
N         2.86676257147135    1.25770273629681   -1.37954051397436
H         3.97906617471595   -1.38108105850008   -1.30910781055827
H         4.50088608830006   -1.79124557403902   -3.03263615593453
H         3.04106609725386   -2.33680915535989   -2.45505661551057
H         2.59442158390842   -0.69406994495923   -3.94892508103292
H         5.51053807573448    3.17840105535063   -2.53730779880184
H         4.41102753667557    3.44482650489093   -1.20717741890734
H         5.08911895979184    4.82064528900656   -3.75497892171071
H         1.75003918654606    4.36033425157318   -3.79822056099362
H         1.07136822375589    2.89551239591130   -1.47767127021779
H        -1.15530908182432    3.27636338410701   -2.65821628869991
H        -0.15528068942871    3.72846232588063   -4.06441026190572
H         0.59805648702148    5.35904905541413   -2.68588882255453
H         1.39937465159364    1.37710901142069   -4.12257629913084
H        -0.00008296066082    1.28572750610912   -3.09058951544906
H         1.70431051954668   -0.91455199309544   -0.56251751126605
H         0.64052207426185   -1.18515081314720   -2.03696979690673
H        -0.61271218685243    0.76035413742694   -1.04955535399072
H        -0.30237692465184   -0.11523882120352    0.28228569787212
H         2.46728774396118    1.85275340760698   -0.65663799149202
