35
 energy: -49.720766085000 gnorm: 0.096674504679 xtb: 6.4.1 (79825abcba525fcdf90b791dcacef51065a7a4e7)
C         3.20894958693401   -1.48700773712572   -2.51720157144941
C         2.79474652599628   -0.14176631706130   -3.09534150948118
N         3.91781084600632    0.82262898374925   -3.28121842923405
C         3.82198296589083    1.65368812412164   -2.28372851441483
C         4.51722381804341    2.96729580994974   -2.11571087027182
C         3.77619921686796    3.96659818102340   -3.01214798135295
N         4.36067766139071    4.99080415323847   -3.54976483372438
N         2.54032060062288    3.60103623075165   -3.51907829363160
C         1.35952432642412    3.07565926371658   -2.80661344054141
C         0.14374671502975    3.87994306653709   -3.33542739583063
O        -1.08794814895096    3.41830758104151   -2.78020996241857
C         0.99268035283433    1.58765924161290   -3.00039929805863
C         1.83731057759090    0.62872606446941   -2.11326987071989
C         0.95329709888040   -0.21579093409268   -1.14393620815250
N         0.81746087005441    0.48838813003468    0.14065802019102
N         2.88018724377770    1.31783859817516   -1.32771967736958
H         3.71870399288023   -1.48521940743869   -1.54641584604035
H         3.85898119643831   -1.92125593369576   -3.28403238262502
H         2.37447089612581   -2.14379807070328   -2.26299803816074
H         2.42797060016008   -0.48988065633722   -4.07053699655023
H         5.56427663223477    2.86385036192016   -2.41176250912184
H         4.43470591755876    3.29703473328090   -1.07819603256872
H         5.31119630982628    5.04070323704306   -3.16218006945918
H         2.31040318085244    4.08815458346086   -4.38842246150264
H         1.56741302045471    3.29544574045966   -1.75066075316947
H         0.10679199181736    3.68928139659370   -4.41288276474796
H         0.28827235713975    4.93902683374056   -3.08769115622332
H        -1.81200383983516    4.01959191220395   -3.03918442064708
H         1.15543841332255    1.29801337072443   -4.04714916720660
H        -0.07521771673970    1.39197358043691   -2.83388894973263
H         1.32823688613939   -1.22299486877928   -0.96392581721077
H         0.01934227436874   -0.39355290281051   -1.69148508683494
H         0.30969876044384    1.35334935795258   -0.02791318777189
H         0.21859077872401   -0.06388272691357    0.75656921367807
H         2.75867416545875    1.91156160012149   -0.50980706651547
