35
 energy: -49.721630283622 gnorm: 0.105321232639 xtb: 6.4.1 (79825abcba525fcdf90b791dcacef51065a7a4e7)
C         3.53982222212700   -1.49705560883450   -2.71805920546712
C         2.98986921138910   -0.21526959781261   -3.32638540067957
N         4.08112059034585    0.80047160948105   -3.26874660096969
C         3.85465492781776    1.52511356432413   -2.21118538041884
C         4.33450367244673    2.89210103773352   -1.83937182778698
C         3.70921447823953    3.96148241150218   -2.74311905147939
N         4.16085746031419    5.13680532076458   -3.05016865794263
N         2.41432784112806    3.73495480909854   -3.17896725541511
C         1.27939575573934    2.96519796591400   -2.63370537592194
C        -0.00377878540653    3.78559777589185   -2.92531999822506
O         0.01472308304076    4.98841048129091   -2.15633024731438
C         1.04975849851089    1.53437420347228   -3.16875828610013
C         1.86623820461037    0.43177853456273   -2.43554933462629
C         1.03925612551039   -0.54276395040554   -1.54075095167403
N        -0.27631156561307   -0.00486023170003   -1.16069409765785
N         2.78167971826872    1.06762082716490   -1.46744377678850
H         3.53776216841200   -1.54732933785944   -1.62273003577998
H         4.54379354465023   -1.59936314195418   -3.14316723458580
H         2.95246370155960   -2.39301110725942   -2.92929693837352
H         2.79372252724268   -0.33844561700754   -4.40019570202295
H         5.40787542457331    3.07901488959329   -1.92656937816294
H         4.07763031110899    3.02006004902338   -0.78598844089621
H         5.13185322140921    5.29315165617734   -2.75197306056332
H         2.13639947580442    4.48594287027874   -3.81511059196873
H         1.34008991468383    3.05909807675611   -1.54097536723527
H        -0.92113401422524    3.19991271583296   -2.80674517738061
H        -0.05048701321182    4.01419983979020   -3.99745747557099
H        -0.73697881160968    5.57164877319571   -2.37460671608771
H         1.39842369029200    1.55240077722726   -4.20999689397942
H        -0.02520841223766    1.32410022403003   -3.08717480624805
H         1.57288011147243   -0.82661542544260   -0.63404419598271
H         0.80494792754576   -1.51274478150104   -1.99673073212087
H        -0.13684493177565    0.82360377732812   -0.58746379280158
H        -0.75151140231774   -0.69144024169982   -0.57265660670272
H         2.36325981217422    1.60004630865487   -0.70737708938463
