35
 energy: -49.720596319564 gnorm: 0.124550629745 xtb: 6.4.1 (79825abcba525fcdf90b791dcacef51065a7a4e7)
C         3.60165823602726   -1.39705671198535   -3.11530453693983
C         3.05703758006365    0.01675970793051   -3.25671121605246
N         4.16606689465531    0.98068424048404   -2.99828243634366
C         3.76801748087216    1.65046899728168   -1.95531866571045
C         4.22609568544727    3.02156221496765   -1.57136210062340
C         3.53265899762732    3.90040532903370   -2.61926597463426
N         3.99731184622189    5.01589063454918   -3.08770494912702
N         2.40521052380617    3.46877806505162   -3.29791735231982
C         1.20179268091260    2.90922622320988   -2.65247626093772
C         0.01409253642749    3.83764968958341   -3.01583566312899
O         0.30153871871996    5.17614834554876   -2.61056785961976
C         0.87635709736610    1.43682225469934   -2.98772204248727
C         1.86418717998437    0.43694093619020   -2.32110319581187
C         0.97011507758656   -0.68186192230491   -1.70206223688590
N        -0.12023843263055   -0.20630187259579   -0.83634068808478
N         2.63589511247593    1.18627990020776   -1.30990843014100
H         4.17299208071966   -1.64577763409339   -2.21308882007899
H         4.29632191706765   -1.69667338437638   -3.90702057315285
H         2.69460484659471   -2.00379693288942   -3.15362048663455
H         2.78220192611582    0.27471500094524   -4.28852458073346
H         5.26783855352193    3.32960965159662   -1.69196766425378
H         3.80440393881476    3.38958914939312   -0.63396877550747
H         4.87746823258346    5.28793271952372   -2.63216636120675
H         2.13074228141730    4.04974987507397   -4.09355831431480
H         1.28802168733642    3.07638305995084   -1.57026416001120
H        -0.70254756596775    3.41833488933951   -2.30223236700901
H        -0.34174218715073    3.73741538432347   -4.04891555116120
H         1.15166980204601    5.50458268237727   -2.96024669304880
H         0.94915578433495    1.38152693325793   -4.08212277725109
H        -0.19113578558576    1.22166069719684   -2.84423237740512
H         1.65912764483485   -1.34145938876341   -1.17515028634004
H         0.45613570994336   -1.19638004852555   -2.52351034620949
H         0.22785099791421    0.15657436357255    0.04771310933698
H        -0.58737004782003   -1.09285481926224   -0.63934573116858
H         2.26933885991778    1.65461431260825   -0.48374087075305
