35
 energy: -49.718872347961 gnorm: 0.114537541191 xtb: 6.4.1 (79825abcba525fcdf90b791dcacef51065a7a4e7)
C         3.58837552047337   -1.41759166141819   -2.56027648867206
C         3.12138229597636   -0.10601846828325   -3.17442432360250
N         4.16843562912902    0.93477328026626   -2.95921772027704
C         3.75009228597678    1.70173821241030   -1.99403271877969
C         4.34147162445062    3.05236395293443   -1.74256591018800
C         3.67086593960368    3.88630668855414   -2.84081439287619
N         4.33451892486596    4.77358700912986   -3.51308157240677
N         2.33499320427255    3.70954651205316   -3.16051693429596
C         1.18710762350230    2.93859910951698   -2.64485640660067
C        -0.09649099128680    3.71029364526444   -3.04671955182079
O        -0.33702953959662    4.90405053399555   -2.30137959031344
C         1.05104020837005    1.48539471472865   -3.15077558419320
C         1.92731684332491    0.48798665683781   -2.34005481550296
C         1.01990392381760   -0.57900808719699   -1.65272620372615
N        -0.18829458030572    0.05994947840488   -1.10821578364970
N         2.69819535130038    1.16141510778662   -1.27619513016269
H         4.25633251551119   -1.19033806050887   -1.72095119847806
H         4.15467377700794   -2.01932843340768   -3.27885928087242
H         2.73771911627765   -2.06785589956158   -2.34606216435378
H         2.97834310258826   -0.18116357868240   -4.26098193207926
H         5.42742531306687    2.99100264076083   -1.85029948023412
H         4.20972086409495    3.51403378665310   -0.76201672353931
H         5.28847380096216    4.98945164162645   -3.19753424194465
H         2.00388006331306    4.10005777503501   -4.04582515343777
H         1.29861672169188    2.99887237982053   -1.55375936610731
H        -1.03858257045089    3.16421184513368   -2.93320426382982
H        -0.11648611241845    3.97723370194822   -4.11079780678050
H         0.51811282713005    5.37437390885440   -2.32124709018273
H         1.30273449089602    1.61547679298740   -4.21181227870449
H        -0.01835227946958    1.24201069294275   -3.21068224181536
H         1.48745426470355   -1.19251882169641   -0.88302195700354
H         0.62088757728145   -1.30628053875492   -2.37073836010140
H         0.05291597679373    0.59203824078048   -0.27569217595904
H        -0.95138388362971   -0.59215174646691   -0.91992399999622
H         2.27535694035720    1.81833210751188   -0.62356871912334
