35
 energy: -49.720045654625 gnorm: 0.117413723344 xtb: 6.4.1 (79825abcba525fcdf90b791dcacef51065a7a4e7)
C         3.52518721567397   -1.48824156445957   -2.64661081794600
C         3.02513147917537   -0.14433316567135   -3.15586410455518
N         4.10643473789269    0.86209280494691   -2.94664648066892
C         3.76745004685278    1.65544898621354   -1.97170866508358
C         4.36038924516357    3.00478381794623   -1.71700585528929
C         3.53509712963284    3.91660289407357   -2.63286670462245
N         3.80909593963262    5.13604704576870   -2.97568653022379
N         2.48929479389749    3.38327510709798   -3.36762436341811
C         1.22037372472930    2.88508507105159   -2.80233416551956
C         0.16243719611661    3.86471861887873   -3.37305322579117
O         0.15539455435038    5.12525637771000   -2.70264968025255
C         0.92011586188047    1.39554016962770   -3.08049372664038
C         1.85115798267252    0.43656932851803   -2.28457464834202
C         0.99693209624204   -0.64044487249095   -1.54658068352418
N        -0.16363049852789   -0.03796833627805   -0.87232668692832
N         2.62776292854789    1.23107212005386   -1.31235708034049
H         4.41814456781291   -1.70336269273240   -3.24546618406506
H         2.89951357531473   -2.31456652230007   -2.99996848032676
H         3.47449455293404   -1.61769475143603   -1.56355043800485
H         2.72887292922715   -0.18589990050204   -4.21284919687359
H         5.37652375769717    3.05146713015567   -2.11695392612602
H         4.50966101886230    3.41035594171400   -0.71440764667405
H         4.68325137690047    5.53258792699810   -2.60852829948172
H         2.32539020096318    3.89261401820781   -4.23918317743868
H         1.33783060911358    3.00489000838063   -1.71678796374947
H        -0.82919617564801    3.51472686354998   -3.06842784442393
H         0.24220768408305    3.96595872252688   -4.46268914570805
H         1.02954191460306    5.55962122160169   -2.71044929223751
H         0.98834967430209    1.10133520172321   -4.13636198963241
H        -0.07177160091326    1.08879423936347   -2.72203722105417
H         1.64041414935419   -1.30643750429760   -0.97227413249115
H         0.59297738756758   -1.20209460406955   -2.39807988307984
H         0.04574536463395    0.39708244122412    0.02282084477002
H        -0.89939087828590   -0.71655644078515   -0.66942294180280
H         2.19213315877682    1.90877678067189   -0.69010587096115
