35
 energy: -49.720684705810 gnorm: 0.123062755400 xtb: 6.4.1 (79825abcba525fcdf90b791dcacef51065a7a4e7)
C         3.73021403332038   -1.30735994127372   -2.63542017363358
C         2.97883909211471   -0.12097663440142   -3.22143620881634
N         3.96240049737797    0.98759021638659   -3.04948125057508
C         3.65247594623479    1.65700523314577   -1.97679362540507
C         4.23131571449571    2.99066648130301   -1.62544314769499
C         3.73573343758054    3.76460858294799   -2.85293409776269
N         4.35023384723471    4.72114499288077   -3.47508532574826
N         2.46025415915282    3.51716338588114   -3.33244771988464
C         1.21197485384941    2.98755773535636   -2.75001869543859
C         0.01304573929543    3.84897495664747   -3.22453016522369
O        -0.29820270880289    4.93949803255104   -2.35716071484890
C         0.99878195624895    1.49577540037944   -3.08973291129476
C         1.77623929537822    0.37743805082896   -2.33817897692853
C         0.87143616468511   -0.70317387887050   -1.66892140972912
N         0.11639385257613    0.10615262014309   -0.69969300322716
N         2.55660864812052    1.11787275002296   -1.32707212156244
H         4.69962911365524   -1.34468027435566   -3.14641848876237
H         3.15340200680708   -2.23818063077977   -2.63709632867114
H         3.77487476626995   -1.15857252482335   -1.55458004073883
H         2.63579624281696   -0.26038450835928   -4.25565159432340
H         5.31333896495757    2.97630982116450   -1.77934806762342
H         3.84789965464433    3.53479131747786   -0.76005635899813
H         5.31587958220874    4.87849331116739   -3.16049450392478
H         2.37802477908306    3.94056543386944   -4.25974196996513
H         1.32104149594817    3.13216119267221   -1.66661933102034
H        -0.91633033316649    3.27344137027194   -3.28493534976253
H         0.15031693744689    4.29129391794354   -4.21923106022816
H         0.45934415719854    5.54389800698470   -2.47416787871092
H         1.00645543823477    1.34577945956156   -4.17762653045257
H        -0.03781927675225    1.30230415063654   -2.78240306450269
H         1.43861387569730   -1.55100743618988   -1.28560554331796
H         0.16750833680159   -1.07680405521179   -2.42295510406298
H         0.73983415019285    0.39562175964819    0.04992446731684
H        -0.62855533850441   -0.42919691981029   -0.25086490901028
H         2.15261558396474    1.69041959467530   -0.58867304504586
