35
 energy: -49.724260898533 gnorm: 0.102486314400 xtb: 6.4.1 (79825abcba525fcdf90b791dcacef51065a7a4e7)
C         3.57316058028111   -1.35471577025101   -3.04860044564260
C         2.94321231531012    0.01393222685953   -3.26179587043862
N         3.98923300328314    1.04708802255959   -3.00819809996878
C         3.66520762644313    1.66973650160896   -1.91177443215335
C         4.08316198516681    3.04509653978341   -1.49842968473880
C         3.69998169370439    3.83717220785717   -2.75426056601178
N         4.44250118298620    4.68743590186211   -3.39094044306217
N         2.45054551010821    3.60928758009229   -3.30651744360621
C         1.22707188484655    3.01747244453514   -2.73138781877294
C         0.05385936073655    3.91040037739847   -3.21189160901583
O        -0.18027654423421    4.98701244988826   -2.30385373791088
C         0.98797956070596    1.52624367413635   -3.05595386323984
C         1.79509719562951    0.44785962937204   -2.27775039177234
C         0.99849671065759   -0.70727110335972   -1.59555012266220
N         0.22469885638764   -0.18146012980980   -0.46009352898126
N         2.64739416863025    1.03345369821512   -1.22407757664114
H         4.19252081753876   -1.30428265195396   -2.14520292490688
H         4.17052026431397   -1.62411715106316   -3.92594096430795
H         2.80369071832322   -2.12448662872556   -2.96075613268276
H         2.66893797008020    0.08404902967743   -4.32319666108141
H         5.15351700166507    3.16327517207605   -1.31123702314245
H         3.36479335002178    3.32895657348612   -0.72684430268644
H         5.38590406598084    4.89870414398862   -3.04229407572434
H         2.36049669291533    4.10651419321342   -4.19565325831806
H         1.22880060090750    3.18875210390523   -1.64639004689369
H        -0.86119075360354    3.32094426403631   -3.32958767957273
H         0.30188695799324    4.32101064466608   -4.19870508925370
H         0.22056589275346    5.78509941390426   -2.69787124840065
H         1.23337055741558    1.34593884889186   -4.11110486405977
H        -0.07795491051190    1.27834587722970   -2.96238439385519
H         1.82049022445579   -1.33514979148829   -1.25271141075231
H         0.39617380446818   -1.22583754918674   -2.35184151027652
H        -0.25831630348336   -0.98364986874101   -0.06312436433954
H        -0.26333665087603    0.64388604702050   -0.81169005657957
H         2.19940950294570    1.44229992505433   -0.40651535504842
