35
 energy: -49.720370405740 gnorm: 0.125858640447 xtb: 6.4.1 (79825abcba525fcdf90b791dcacef51065a7a4e7)
C         3.70541403329862   -1.33847151435874   -2.93561359436728
C         3.00484883785814    0.00512050261732   -3.07508880773550
N         3.95561441052079    1.12072888991399   -2.79697954687078
C         3.58968957192727    1.69885950421126   -1.68941806207661
C         4.05977670639986    3.11007527225336   -1.53243686086178
C         3.62092384045106    3.77765361969787   -2.84127968088779
N         4.36234687353229    4.59165366790220   -3.52490284390801
N         2.37423917223526    3.46878213160800   -3.35933914341652
C         1.14574332019079    3.01550969674330   -2.67871514002505
C         0.03519339468704    3.87286605358913   -3.33920797001607
O         0.16628640616697    5.27893559587998   -3.12890100091043
C         0.90027094094760    1.49681651847704   -2.81866466597619
C         1.82693893363528    0.45222410838995   -2.13305194868615
C         1.04465918777175   -0.80196688407287   -1.63371246306130
N        -0.03888792150049   -0.30176953489266   -0.77334611325616
N         2.58243446423598    1.03890903268887   -1.00851460231472
H         4.68816575115203   -1.11115709986274   -3.36550300303240
H         3.07804209569870   -2.12346780510945   -3.37073122677853
H         3.86165585446916   -1.48837816377140   -1.86535000183214
H         2.65633276322011    0.16024125820677   -4.10522885740705
H         5.15193065829339    3.15249327280388   -1.54065946168227
H         3.64271450345939    3.52500290009719   -0.61272593464866
H         5.22928953873927    4.77328569318387   -3.00373320438064
H         2.26347875495874    3.92731192914991   -4.26674652605259
H         1.25636991951365    3.35076233344379   -1.63855779116991
H        -0.87933975042115    3.61212060266652   -2.79674272948092
H         0.00091388774535    3.57001095000638   -4.39325874331826
H         1.09121205093775    5.57047799958326   -3.24017920464842
H         0.80739984628499    1.41759144469865   -3.91007135081243
H        -0.09487031786686    1.33131739854009   -2.38423539230885
H         1.80868172393600   -1.44034017418353   -1.19077626944564
H         0.68254139642612   -1.22805472863164   -2.57764072848789
H         0.12317433949831    0.39411920274694   -0.04955662429725
H        -0.73440033266407   -1.01995093472403   -0.56484419963586
H         2.01705421421655    1.48141430792062   -0.28685835673373
