35
 energy: -49.725046949440 gnorm: 0.110028735234 xtb: 6.4.1 (79825abcba525fcdf90b791dcacef51065a7a4e7)
C         3.60423501888318   -1.39961906882194   -2.55699882350270
C         2.96507560266194   -0.15780708553932   -3.16103748399458
N         4.04296727166123    0.87275787405377   -3.11668172819293
C         3.85073284515599    1.54118289802420   -2.01618987003349
C         4.40793772967770    2.91877226423640   -1.84611582559531
C         3.61667588118279    3.89228583576746   -2.72787440476203
N         4.09034561030495    5.02521202025343   -3.14231385540757
N         2.40082222942550    3.57113762542903   -3.30802402051565
C         1.21135965925835    2.97292677897326   -2.67144757486868
C        -0.03199244986335    3.73592117103143   -3.19732487776391
O        -0.15572483547364    5.00022388455717   -2.54565401761650
C         1.05606507527502    1.48599585556305   -3.06028119697615
C         1.88632718616391    0.48134661891752   -2.21098945939588
C         0.94340221820460   -0.57112633845131   -1.54955937246066
N        -0.24526199260344    0.10158102412348   -1.00271005280425
N         2.78925546852714    1.12200428732024   -1.23434457917558
H         4.45216338326408   -1.80275912544134   -3.12336731428736
H         2.93980714120141   -2.26999618262372   -2.54598250926886
H         3.95939092611970   -1.27285401040696   -1.53223418141721
H         2.69036302564251   -0.30759899169159   -4.21403786913931
H         5.41444342233817    2.79477910379632   -2.25384016092724
H         4.47221809330378    3.26509205366504   -0.81272111480681
H         5.08576778313315    5.20478388618425   -2.96041771822487
H         2.29102676234041    4.26999837106148   -4.04656597590798
H         1.20010310270765    3.04644683544073   -1.57553335352827
H        -0.97001758916687    3.17780678416322   -3.11220869865402
H         0.09900155862268    4.03249625335644   -4.24556298178288
H         0.72147089082934    5.41525576144620   -2.65121661196930
H         1.28410434790666    1.43727196312929   -4.13345140207276
H         0.00724474503878    1.16156050667543   -3.02648030597326
H         1.55651945488561   -1.17467474983298   -0.88078442262161
H         0.64796710328986   -1.30016895107082   -2.31434409588268
H        -0.19573494397905    0.19352266025477    0.00896694360618
H        -1.17420298518121   -0.15701542863130   -1.33914963191286
H         2.27800938043080    1.71146844670933   -0.58057632846073
