35
 energy: -49.723256436565 gnorm: 0.127704215504 xtb: 6.4.1 (79825abcba525fcdf90b791dcacef51065a7a4e7)
C         3.57358638276424   -1.50335499045418   -2.59455852340062
C         2.95136046961876   -0.22241790024363   -3.13076699049470
N         4.05197242492569    0.78213602937756   -3.05723649045540
C         3.76468364735334    1.55700191413280   -2.05131579934002
C         4.41973799496888    2.88875637529096   -1.86560422354496
C         3.58527523403421    3.87741349927892   -2.68873918117708
N         3.94816813979890    5.10954582676848   -2.86137598051742
N         2.48820942566589    3.48006390232678   -3.43477520073848
C         1.23494359754205    2.96686719169423   -2.84837869898421
C         0.06261967589900    3.81668466788253   -3.40344509083230
O        -0.09609721653299    5.06608957664161   -2.73095548086996
C         0.90017178665985    1.46496811938643   -2.98438798650519
C         1.86204938740142    0.48976031621149   -2.24701909322695
C         0.94613150592203   -0.60751074382442   -1.62140961932313
N        -0.09868329441828   -0.01105035614904   -0.77459262914729
N         2.70047577348684    1.18427759895804   -1.24990131377077
H         4.52093106401333   -1.54925046975604   -3.14474880340402
H         2.96102723174063   -2.40078379621970   -2.73070146632888
H         3.90030069927666   -1.29845282090021   -1.57298105531888
H         2.84305703774818   -0.25227184840144   -4.22351284965701
H         5.47840661489454    2.82047361190513   -2.12871131970807
H         4.35194508741291    2.99484006147402   -0.78111154575880
H         4.78104919155549    5.44926270649248   -2.36428529183962
H         2.32742407016386    4.18395684456582   -4.15905994648217
H         1.19886057400187    3.19612321467807   -1.77474022485771
H        -0.85528809369621    3.25815047148317   -3.19341539997390
H         0.22441932104867    4.04099359894800   -4.46524813431089
H         0.65479223875659    5.66801918058898   -2.89439671590358
H         0.89509052809786    1.35842640344031   -4.07740822722545
H        -0.10204506078714    1.36005370033414   -2.54737629220063
H         1.64490807452026   -1.24945688028998   -1.08562997454015
H         0.41259382072386   -1.10192396589607   -2.44273404534242
H         0.38191981771628    0.48969004251061   -0.03117064855815
H        -0.72862419583590   -0.71501777326989   -0.38652121696750
H         2.21664615547775    1.94198919657352   -0.77237066529431
