35
 energy: -49.720416956240 gnorm: 0.117584386755 xtb: 6.4.1 (79825abcba525fcdf90b791dcacef51065a7a4e7)
C         3.56646910591102   -1.61056488003065   -2.59767233721980
C         3.01900481425059   -0.31978301326710   -3.18898396909514
N         4.10182750279929    0.70334840383636   -3.27009574290330
C         3.91358212785052    1.46658623641374   -2.23237705114683
C         4.43697175602863    2.86675602050049   -2.18000565558775
C         3.40818268279469    3.91240627557046   -2.62669431051507
N         3.64212795995322    5.17552006574717   -2.45506107449613
N         2.31213098270028    3.56213527800756   -3.39740227510888
C         1.20191627375157    2.91245430338483   -2.67404554260696
C        -0.08298606050251    3.64032754290135   -3.14718230370418
O         0.04009892857465    5.06118735462873   -3.21391642385332
C         1.12129398286492    1.44175301185455   -3.13967342617119
C         1.94506266993547    0.41780722232265   -2.30727216158709
C         0.97239054136809   -0.43480096084418   -1.43476727891043
N         0.03269234309490    0.46537854812513   -0.74836643268436
N         2.86283188551119    1.13142314354986   -1.39732220462231
H         4.55884903875088   -1.95213365421057   -2.91514755300688
H         2.91133029530307   -2.47850377432532   -2.72658039597225
H         3.66193837197444   -1.47234329641076   -1.51872466647737
H         2.66704233604613   -0.42197186369523   -4.22454867457265
H         5.29252996066947    2.92921465910323   -2.85734324277803
H         4.90011916254532    3.09419020780147   -1.21785070274090
H         4.54756068697356    5.43181432118456   -2.04189961399210
H         1.97809928018865    4.44552105112697   -3.78977712080525
H         1.28106906012440    3.00929792947507   -1.58275454303393
H        -0.82379916624019    3.24817477565838   -2.44288140838348
H        -0.41715372052461    3.32697614414230   -4.14420898780326
H        -0.11813274171079    5.40960780658929   -2.31590017210895
H         1.36816866158312    1.28505207908677   -4.19824223656271
H         0.07470422832836    1.11108532661408   -3.09803631003814
H         1.69655679733284   -0.89654161917180   -0.76407944855442
H         0.36507999546691   -1.11636940708289   -2.04330573963233
H         0.63951098167234    0.93177040122136   -0.07855577253044
H        -0.70567655304358    0.02005120533091   -0.20110962449868
H         2.56542162253178    1.89064613099915   -0.78791178005658
