35
 energy: -49.720659787256 gnorm: 0.122121664912 xtb: 6.4.1 (79825abcba525fcdf90b791dcacef51065a7a4e7)
C         3.63648204949524   -1.38301478505075   -2.72255501038141
C         2.98090409819362   -0.08546689554060   -3.17207862741028
N         4.02442928747919    0.96879709294942   -3.01250219645871
C         3.70160972941230    1.61430264508287   -1.92901774958597
C         4.41322475357005    2.90544142711736   -1.67659023970374
C         3.69871221211119    3.83730801652301   -2.66270314577827
N         4.15785340181873    4.93945772685730   -3.16678665167941
N         2.45383072338590    3.48830242413509   -3.15916562749029
C         1.15636996215357    2.96785403111540   -2.68626395766826
C         0.08515138711999    3.81013479013757   -3.42632187555674
O        -0.09999211113039    5.08698559161610   -2.81491376652388
C         0.85916382721855    1.47304114206185   -2.93820536285177
C         1.80900793107560    0.44159223796982   -2.26451326941628
C         1.00054124068581   -0.69826969415707   -1.57068838507770
N        -0.11061594084460    0.03433902833942   -0.94369861429513
N         2.65179320459029    1.05769995247672   -1.22063529352072
H         4.56542873440234   -1.60516953023702   -3.26105571506974
H         2.91976951453882   -2.20851184946015   -2.78595708485943
H         3.86345587872583   -1.22357937465020   -1.66642485584741
H         2.68981107080804   -0.09387499240001   -4.23128048632676
H         5.40968699014437    2.82647379060365   -2.11873758642212
H         4.47872459885836    3.30511047868157   -0.66271233432895
H         5.06480396021840    5.30558957280708   -2.85121461003966
H         2.23830278400516    4.02747849427714   -4.00103406854670
H         1.03003448236162    3.15058162523485   -1.61052707063980
H        -0.87018484707255    3.30408078503255   -3.25349357467814
H         0.24802914672288    3.97452953507854   -4.49887235371099
H         0.69065318791494    5.65726220455062   -2.76459622289300
H         1.07880749656752    1.27103360722722   -3.99509695423531
H        -0.18200642618509    1.32819062099390   -2.61975960127297
H         1.55400226255953   -1.32378255132911   -0.87078987471215
H         0.48405265008978   -1.22037940426094   -2.38574771070313
H         0.20352365770799    0.26616605941084   -0.00456652422401
H        -0.92320126181625   -0.58269529957056   -0.98807004227075
H         2.15220301148766    1.68547119441981   -0.59408410082483
