35
 energy: -49.717934217713 gnorm: 0.108937952458 xtb: 6.4.1 (79825abcba525fcdf90b791dcacef51065a7a4e7)
C         3.59991021601869   -1.36621992333036   -2.80421464858926
C         3.04109742176355    0.01971664207726   -3.09125565354334
N         4.07356118468249    1.08024773362659   -2.90370730624782
C         3.67443990632701    1.76298937726981   -1.86959199235204
C         4.15430810480724    3.14803072596689   -1.57203202962913
C         3.55715325081528    3.91832325585661   -2.75583002944435
N         4.29080142172710    4.74633939874519   -3.43095552883954
N         2.39890132729563    3.39802401032034   -3.30877760238772
C         1.15844833018516    2.89943122916302   -2.68380674028674
C        -0.02547178048602    3.71463100604457   -3.26554065462485
O         0.29698258748813    5.05673240778475   -2.90052972547686
C         0.88498459583409    1.40284400044614   -2.95160481222935
C         1.86806762298694    0.49581787581185   -2.15737368726178
C         0.97389510790750   -0.65885738908164   -1.60830437341406
N        -0.06215442582992   -0.05659850129748   -0.75484812158313
N         2.61035340943040    1.26509443065977   -1.13914859962575
H         4.43133623313756   -1.44143560021436   -3.51509513531870
H         3.01989787125057   -2.22895921823327   -3.14832024803666
H         4.05457209822431   -1.43107264302861   -1.81354600486526
H         2.76865818192560    0.01493442696982   -4.15543064356638
H         5.24575788216962    3.17716794778754   -1.52147965414041
H         3.83868468699824    3.50791451948570   -0.59078816869881
H         5.12735354764663    5.03032354154296   -2.90585447824916
H         2.25892263851566    3.68555091757433   -4.28018886461051
H         1.07878458488998    3.15310795180542   -1.61803861627460
H        -0.93790458763690    3.50686964615693   -2.69727206490455
H        -0.09184457132254    3.57809954686755   -4.35222052777827
H         1.03424314849750    5.25542060031806   -3.50867208599482
H         1.00290017849763    1.10219574147647   -4.00126035135967
H        -0.15327339037158    1.18917036459158   -2.66387437296169
H         1.46104804807999   -1.41469529824609   -0.99280910559903
H         0.65814783634351   -1.25212864253965   -2.47549154294111
H         0.14597847953889   -0.37690096157987    0.18774594118776
H        -1.04636294331505   -0.13535381013131   -1.01585823347672
H         2.10555221002032    1.87650959419269   -0.50071244035788
