35
 energy: -49.712428977409 gnorm: 0.116415107254 xtb: 6.4.1 (79825abcba525fcdf90b791dcacef51065a7a4e7)
C         3.59653341506062   -1.34357997527542   -2.87742958356166
C         2.99702650564467    0.02293729419772   -3.17526584794438
N         4.06637037690452    1.05107282512393   -3.01613382499310
C         3.80216630698958    1.63801683414099   -1.88453258906539
C         4.33920397524332    3.02274521643049   -1.70769146581803
C         3.54460707386827    3.84956279534173   -2.72568490489636
N         3.91877269562114    5.05706444816717   -3.01131518218783
N         2.47004976466541    3.33347192176665   -3.43065770030401
C         1.17118349824412    2.93372323077328   -2.85528444679888
C         0.07756846245354    3.85894187738829   -3.44909286045567
O         0.14476208297229    5.07504732872600   -2.70409721696091
C         0.89399202015662    1.41655169127449   -2.94261663074983
C         1.84158236249890    0.43779683756992   -2.19157526136365
C         0.92567624668451   -0.65512007416746   -1.55837299003674
N        -0.06452557990995   -0.16700717797117   -0.58587718675791
N         2.64289772027211    1.23797312141191   -1.24438546197883
H         3.45924319677740   -1.50935224889857   -1.80227906882480
H         4.68644265405864   -1.41419311671843   -2.95650996211835
H         3.18957957888278   -2.24321932544600   -3.34367551666694
H         2.61254951416107    0.04455777848291   -4.20406340020937
H         5.33391485899881    2.96375205485730   -2.15684312802401
H         4.44324110173288    3.37535656278619   -0.67967614525897
H         4.75032156347015    5.35420249955736   -2.48554619772701
H         2.25796293882625    3.86173581964863   -4.28028234470802
H         1.06751486787730    3.35148785178628   -1.84469777569693
H        -0.89075185655167    3.39684020943035   -3.23127320369002
H         0.23940104788473    3.97749759624036   -4.52783012309118
H         1.10032792685486    5.27424464946173   -2.71313091921551
H         0.85358426585232    1.14608295734550   -4.00623501868811
H        -0.12546012168021    1.18949205522907   -2.60263704894383
H         1.61528268714210   -1.41073809502511   -1.18296959109669
H         0.46472443130848   -1.13628021820821   -2.42997441176206
H         0.37651809890803    0.23441634750759    0.23797726528123
H        -0.76340746023814   -0.83516386084307   -0.25705224721017
H         2.10585089244850    1.90183574007508   -0.69020083592449
