35
 energy: -49.714993905760 gnorm: 0.106125691329 xtb: 6.4.1 (79825abcba525fcdf90b791dcacef51065a7a4e7)
C         3.04885025599779   -1.54624931989581   -2.56197566711057
C         2.76505915811769   -0.14021029722592   -3.06991397967114
N         4.03996393039421    0.62937960586452   -3.16063995565632
C         3.93642086579742    1.61744735058426   -2.31931399313090
C         4.67174292857803    2.91971037458748   -2.29549376865204
C         3.87056292297824    3.95812669654458   -3.08992710555390
N         4.38379633362572    5.06151072152442   -3.53577457444074
N         2.57585909777605    3.62389607623113   -3.45054011162618
C         1.39930901183779    3.22349660333827   -2.65472786439433
C         0.19304574797488    3.91094630566552   -3.34536068923238
O        -1.06858936985504    3.30912999901407   -3.05460318910562
C         1.01532509384986    1.72857143671479   -2.71818359565685
C         1.91107712558103    0.66426005153807   -2.02189252609125
C         1.09300225954052   -0.27908681096857   -1.08639973632519
N         0.00020094613233    0.39398635309517   -0.36719199519218
N         2.98350378908550    1.41328614999963   -1.33748190942566
H         3.50873975957797   -1.48682116034599   -1.56837231458731
H         3.84777897304314   -1.94984680363654   -3.19281959397117
H         2.23079030670848   -2.25702515549638   -2.42809775988724
H         2.28444610585164   -0.11705851956715   -4.05743081893279
H         5.64421898790692    2.78284737446237   -2.77531245465424
H         4.74409448799965    3.28896508524516   -1.27060830576145
H         5.34656245469536    5.32084141996880   -3.28672328659099
H         2.40655595497405    4.14921922249518   -4.31151492946474
H         1.48929413563732    3.70613739864316   -1.67211887618445
H         0.32424887367754    3.71720004891002   -4.41488195224311
H         0.22035613364098    4.97136484602952   -3.06485044651189
H        -1.30424729423150    3.36984983949706   -2.10927483114296
H         0.66951924798516    1.41086069236170   -3.71093149959006
H         0.09840833066671    1.70231534750346   -2.11403199691223
H         1.77945406935583   -0.74532362779361   -0.38010624158933
H         0.51353038506558   -0.91383719365800   -1.76829783001367
H        -0.73243576534629   -0.23219299204439   -0.04232369445828
H         0.26159474498441    0.91450945501278    0.47169063335095
H         2.82492190418665    2.19108238008486   -0.70019210950073
