35
 energy: -49.728629906990 gnorm: 0.099733211684 xtb: 6.4.1 (79825abcba525fcdf90b791dcacef51065a7a4e7)
C         3.61280350846620   -1.47915126846168   -2.49285936097714
C         3.04679194186525   -0.20931099648587   -3.11142305846146
N         4.12973198945311    0.81689434721106   -3.10637790384171
C         3.84428958707252    1.56804112391788   -2.08210764284726
C         4.47114996126729    2.91447231088000   -1.90512164622241
C         3.64604303137224    3.90798700869818   -2.73183154532079
N         3.94664153100427    5.08656610525306   -3.17930964270117
N         2.41031600445224    3.50716629153276   -3.21175997575763
C         1.16911475728539    2.92989697083243   -2.66031952920413
C        -0.02750235982267    3.80137477963508   -3.12212655083797
O        -0.04046428746487    5.11767535120974   -2.56928774668580
C         1.02951142138573    1.45510748264442   -3.09824466092615
C         1.87369171857674    0.43354831134195   -2.28354951301520
C         0.91933588498253   -0.57953847950001   -1.57845613865559
N        -0.22184638730148    0.11378202383356   -0.96078982298805
N         2.77580863370960    1.11127276412909   -1.33148250549269
H         4.56073165887244   -1.77988290686971   -2.95467143039283
H         2.75812218227541   -2.15880591715782   -2.57490493686276
H         3.86202708266180   -1.18435733237589   -1.47142320607060
H         2.81227748582975   -0.41531844846253   -4.16464588394026
H         5.51051244856450    2.90432472436715   -2.24318935178739
H         4.46636054029102    3.27233615632358   -0.87367386682113
H         4.86842882154151    5.49508059531343   -2.98025774795194
H         2.20488187295036    4.25888670468412   -3.87404303405729
H         1.22353737587745    2.94999581239349   -1.56341748204807
H        -0.98393337585129    3.41032321312245   -2.76026196941677
H        -0.06553093377357    3.65693852122336   -4.20914601817423
H         0.66901213621929    5.64453279022020   -2.98393422557933
H         1.36163792571768    1.41100187929128   -4.14410167592841
H        -0.03449789018258    1.19865522194469   -3.00582550799569
H         1.47086109753102   -1.11191752774821   -0.80396543473371
H         0.57108404496731   -1.28372167103780   -2.34430690898749
H        -0.32526855669727   -0.17927442320367    0.00762037570280
H        -1.05114345417740   -0.22736872071165   -1.44954091565420
H         2.32431729717138    1.76661086344466   -0.69670614181083
