35
 energy: -49.725236317442 gnorm: 0.118585654681 xtb: 6.4.1 (79825abcba525fcdf90b791dcacef51065a7a4e7)
C         3.49482157282690   -1.47202269607339   -2.78367264355978
C         2.99518996758378   -0.08035850014280   -3.14301014549257
N         4.05573977436383    0.96597012346879   -3.06355891867518
C         3.74122142161632    1.61322292522489   -1.97867624838692
C         4.34065990048063    2.94189331118822   -1.64332059931181
C         3.59803568394330    3.89517183278285   -2.58729702594438
N         3.99331872291976    5.09387792880929   -2.88140552992535
N         2.51763952001995    3.43039478972515   -3.31855365942007
C         1.25000394907058    2.96025148199396   -2.72696908648618
C         0.12873359166402    3.72615958553602   -3.47581446233785
O        -0.12440312514214    5.02453398765737   -2.93860717633965
C         0.94793617850302    1.47272787123787   -3.01384900718457
C         1.82489252983686    0.45040793280822   -2.23554241311562
C         0.90462453625135   -0.66134454576654   -1.64274415096925
N         0.05435266046072    0.13098970247490   -0.74066535457128
N         2.68732641892360    1.11149591078818   -1.23617892353249
H         4.39953307519632   -1.71295599992281   -3.35439666963582
H         2.81717094091038   -2.27687437349317   -3.08722736419785
H         3.61689184953445   -1.56785309099614   -1.70281046771288
H         2.60410840153342   -0.09971559409546   -4.16936043856013
H         5.42675898107128    2.94897428929876   -1.76581859630789
H         4.20206355573686    3.22186094324048   -0.59719289976393
H         4.92028071224653    5.32419632195850   -2.50207392118193
H         2.34194984931775    4.04211783832107   -4.11907452016244
H         1.23691249195181    3.11057359272514   -1.63894714084748
H        -0.82949737883859    3.23409581906131   -3.28012528355476
H         0.26882955314667    3.78822250495440   -4.56229531360167
H         0.74990098896593    5.45857583693536   -2.93040653846355
H         1.03155905571487    1.35664983026280   -4.10270313128726
H        -0.09159841757345    1.13823268680427   -2.89592678765741
H         1.56497280434268   -1.37577047044262   -1.15184790901214
H         0.28785663596776   -1.11025669688602   -2.43125917215513
H         0.64360009403745    0.59637047238841   -0.05465898439669
H        -0.66442536687542   -0.32514490173136   -0.17648944844710
H         2.15309970757519    1.59814111526098   -0.51921886280104
