35
 energy: -49.721992333364 gnorm: 0.120641436898 xtb: 6.4.1 (79825abcba525fcdf90b791dcacef51065a7a4e7)
C         3.59293199870952   -1.46613857939982   -2.61194513177428
C         3.00139104636698   -0.14329072051114   -3.07631275804891
N         4.05641647962556    0.91157812062762   -3.08373319356172
C         3.80882181034367    1.59263481421566   -2.00221247278993
C         4.33402573144365    2.97636872799372   -1.78635089382669
C         3.60985513862036    3.91173230536298   -2.76205275441772
N         3.94967796239677    5.13338028136888   -3.02989874873135
N         2.45719648569160    3.41738338105440   -3.34942574203825
C         1.24362755626010    2.94500641221937   -2.65515098303066
C        -0.00076790814179    3.76348886045293   -3.08665793525370
O         0.25001976336444    5.16402124774837   -2.96808080362095
C         0.92479889218878    1.45304259056934   -2.89735707550675
C         1.84109313918562    0.42259498215085   -2.17726383663905
C         0.95577043096431   -0.75367508231817   -1.66065083580712
N        -0.23268533497156   -0.03335695591530   -1.17772571152180
N         2.69761313447908    1.21287817684950   -1.27096207070756
H         4.60189603908656   -1.54008253564944   -3.03479444279412
H         2.92811538132787   -2.32697191016438   -2.73893694280453
H         3.74950545503233   -1.29916263826526   -1.54426003751396
H         2.59437883939427   -0.27164332563396   -4.08852869083582
H         5.39483790436625    2.98298964657600   -2.04960141748734
H         4.20422564452601    3.33335551068574   -0.76278537659981
H         4.81804870324456    5.38738928846369   -2.54244695938805
H         2.20904400532699    4.04884321667402   -4.11466062921745
H         1.31298344591344    3.12488739628313   -1.57376646163584
H        -0.73481259201001    3.56333373621816   -2.29941977074141
H        -0.37139715526781    3.50014190305385   -4.08525779010672
H         1.16956648261860    5.36920053153065   -3.22342870986768
H         1.09599736022469    1.31488023589770   -3.97330896199364
H        -0.14532994257962    1.35434383464670   -2.67040398871331
H         1.52755163754743   -1.37609211700624   -0.97282335475436
H         0.62124176876787   -1.22807278404308   -2.59162780155757
H        -0.15104066656798    0.45225521179441   -0.28783161137554
H        -0.99792026033638   -0.69597656580417   -1.04227886337020
H         2.43011619522912    1.84949663380850   -0.52302103382060
