35
 energy: -49.723010413168 gnorm: 0.118675570915 xtb: 6.4.1 (79825abcba525fcdf90b791dcacef51065a7a4e7)
C         3.55642867134628   -1.30580563938793   -2.80744280156321
C         2.95141145898666    0.04197265631148   -3.17204161308953
N         3.97594376106289    1.11148442864312   -2.99215236620049
C         3.65580538402174    1.71114701758031   -1.88186203172762
C         4.21616052844911    3.06431203798956   -1.57837976693037
C         3.59849309124057    3.90606404121163   -2.70143928733952
N         4.26001622454581    4.88265691839264   -3.23837345109097
N         2.40441592788987    3.53026139075359   -3.29385967577647
C         1.19566716939660    2.95933935452084   -2.66865457501960
C         0.01671960329838    3.75212879336356   -3.29010398338366
O         0.21156012233259    5.15789500232148   -3.13420499420842
C         0.91108299939334    1.46388234315089   -2.93112685318558
C         1.82681672898558    0.47116702637996   -2.15918144283767
C         1.03271542044071   -0.75323976001930   -1.60734117064198
N        -0.10001636011057   -0.17816180805241   -0.86524545981399
N         2.69360251015148    1.06819187966088   -1.12390338078403
H         4.36433148189362   -1.71051454247362   -3.42855586020096
H         2.75116752713892   -2.04523677413753   -2.87019764825041
H         3.91779033130644   -1.40939423352771   -1.78224290831456
H         2.52088155710711    0.06649313710062   -4.18236689515581
H         5.30122358953025    3.17986876704052   -1.64124415497015
H         3.85040773564190    3.39440566716917   -0.60409177632424
H         5.12196705444224    5.08767513413259   -2.71759915863632
H         2.33931804880128    3.87447858928469   -4.25468347428194
H         1.21524435704104    3.09240622810839   -1.57848494579388
H        -0.97321582358116    3.65405522876299   -2.83289832710044
H        -0.03896301968273    3.46113106446276   -4.34657882755542
H         1.03242964709256    5.41765058032735   -3.59416969191454
H         1.00360019869411    1.22541992887236   -3.99913736261993
H        -0.11699032600463    1.25409741172064   -2.60634940885124
H         1.53692359678984   -1.37566263852547   -0.86855349505000
H         0.69306841227604   -1.53574351181173   -2.29727485141236
H         0.32976709694447    0.11865708250812    0.00744077686365
H        -0.73707843473147   -0.91724872835318   -0.56375329733810
H         2.28003440981985    1.70222198963289   -0.44330016913973
