35
 energy: -49.720726376228 gnorm: 0.110931434636 xtb: 6.4.1 (79825abcba525fcdf90b791dcacef51065a7a4e7)
C         3.55282261572004   -1.40704961013698   -2.28134605630234
C         2.88485567868192   -0.23675378093332   -2.98824938202422
N         3.95097315766746    0.77322898492535   -3.25132799794734
C         3.83143132102928    1.66791927121821   -2.31320888001364
C         4.56045383187316    2.96828708503051   -2.19186352801481
C         3.80921589810970    3.83114072745754   -3.21286664547702
N         4.43531597887104    4.86771177614524   -3.67456347848182
N         2.47214241687245    3.65431670568245   -3.52747371285379
C         1.31465358183542    3.03685657134066   -2.85155246294355
C         0.04356123300638    3.84151080550715   -3.22770089023517
O        -1.03141080036844    3.59819987316554   -2.32013222808244
C         1.05176253458788    1.52715639941463   -3.04639913612859
C         1.84555076341860    0.56278805334201   -2.11912050391089
C         0.92330731064802   -0.24246936911142   -1.15199895696383
N         0.04713275905513    0.72075209744111   -0.46714528550274
N         2.84539603806150    1.36824899847278   -1.39035506593309
H         4.24038085846231   -0.93218685368939   -1.57138358192211
H         4.00660371071919   -1.88726452408708   -3.15462633507281
H         2.84695240831843   -2.07252730823662   -1.78011322144284
H         2.50113928999394   -0.45107620254836   -3.99499764521497
H         5.59082819517880    2.77538274777498   -2.50135300777249
H         4.45603529956122    3.41650906267940   -1.20182926658572
H         5.43333121340884    4.96866909979416   -3.45102204063318
H         2.24665493173131    4.39424844282849   -4.19647447385181
H         1.42059376088236    3.26010740419988   -1.78127416421657
H        -0.16810529547754    3.47200619394409   -4.23630944741340
H         0.31738450965967    4.90257755843501   -3.17222572636282
H        -1.42449000244842    2.75914140673580   -2.62727534257989
H         1.18153106059781    1.24470402749468   -4.09970393537565
H        -0.00794590237994    1.37655379539857   -2.79990011756017
H         1.46783381624154   -0.80746017782022   -0.39587751519650
H         0.25547175959702   -0.90407399147780   -1.71764523884965
H        -0.50482594291298    0.34178320409334    0.29843992136291
H         0.59111134978821    1.51668849318193   -0.13014731134965
H         2.63287525800982    1.89917176601167   -0.54820934215852
