35
 energy: -49.720328196630 gnorm: 0.120530687915 xtb: 6.4.1 (79825abcba525fcdf90b791dcacef51065a7a4e7)
C         3.65473810178712   -1.45723734771381   -2.54802302944692
C         3.07445006374738   -0.15500776417658   -3.07995193439014
N         4.10910821058903    0.91498123439170   -2.97754062468574
C         3.73447528701547    1.63679307773005   -1.96094519500736
C         4.37616771947620    2.96389964688031   -1.70761945131947
C         3.67395660898470    3.79526237989080   -2.78792392328651
N         4.23444154692745    4.76422996323018   -3.44107265448680
N         2.30481505075103    3.73277269061284   -2.98681148729757
C         1.11791620802934    2.95421464844491   -2.58304734292184
C        -0.00503595986928    3.78714585334080   -3.25374540702670
O        -0.11627945399532    5.11182964244544   -2.73289638087790
C         1.09713471183751    1.51981484427433   -3.15605422504924
C         1.90183881322294    0.51980753480013   -2.27719791939302
C         0.95940592968884   -0.55708116723791   -1.65556493381430
N        -0.21654038847413    0.05271951311676   -1.01541231976180
N         2.65048835404077    1.21551162915555   -1.21179816363650
H         4.52250091379808   -1.81816080573364   -3.11282356211722
H         2.92253146724232   -2.26448198725281   -2.44138524675473
H         3.96215872109905   -1.29933714574606   -1.51221042146512
H         2.75406988181379   -0.43602632149037   -4.09242392635221
H         5.44017302860117    2.93505860059028   -1.95607073940514
H         4.27144562839935    3.36424747569945   -0.69730816544012
H         5.24421394625336    4.86891595224065   -3.28107856950798
H         2.08683748300206    4.17239041131499   -3.88410054071142
H         1.04796663655553    2.99541957623791   -1.48761633263634
H        -0.94776506588316    3.34357602593830   -2.91738957841969
H         0.18892701046515    3.70129483927652   -4.33028026774581
H         0.78066889925058    5.44671435066641   -2.54262514002670
H         1.49804884537334    1.56110561825567   -4.17763787059530
H         0.04450443369564    1.20684678385867   -3.17715799082074
H         1.34709933424465   -1.06728171095628   -0.77418386250018
H         0.64289729087086   -1.20399696308084   -2.48321398332391
H        -0.42981963068751   -0.50144241430286   -0.18969259526574
H        -1.08774551103167   -0.04489977807561   -1.53930848694602
H         2.07261690339651    1.73927198178788   -0.55758629827307
