35
 energy: -49.720590572156 gnorm: 0.120632047122 xtb: 6.4.1 (79825abcba525fcdf90b791dcacef51065a7a4e7)
C         3.62612087759764   -1.46155227802149   -2.70644811192123
C         2.99357299236966   -0.14929162459219   -3.14615209385706
N         4.04678793185446    0.90449385322688   -3.06768898801533
C         3.79553315420324    1.62050970944705   -2.00985122237877
C         4.23280300243360    3.01257660614051   -1.68106595080694
C         3.59669219911394    3.93924932579831   -2.72412055362465
N         4.01385673143250    5.08072915732739   -3.17427870120424
N         2.40937539561760    3.54585041065740   -3.31870104384136
C         1.19534961664042    2.98643287966752   -2.69332082249485
C         0.05293233806270    3.89209898572777   -3.22179361993378
O         0.13365590506790    5.25111038813701   -2.79165681896320
C         0.93060605807312    1.48822612453673   -2.96082577246819
C         1.83417711234787    0.43501735679603   -2.25778785066268
C         0.93857089343150   -0.70472932187503   -1.68058462238977
N        -0.05425107428813   -0.07963927109232   -0.79285214658274
N         2.73547775298620    1.09531349553260   -1.29278883579800
H         4.67545363270814   -1.56792598762537   -3.00621982887012
H         3.07785498511648   -2.30491169670833   -3.13921997113206
H         3.49221174677308   -1.56430116467592   -1.62762529108546
H         2.53284437035887   -0.20841192624191   -4.14161598177050
H         5.31950566854904    3.12688849643398   -1.70708978679226
H         3.91578824423934    3.28478964058893   -0.67241551336765
H         4.98928414467132    5.25862139365119   -2.90392101351788
H         2.28962250765415    4.05527296567293   -4.19736679766129
H         1.39232163920562    3.15054296229128   -1.62522448288452
H        -0.92249166851041    3.44164894388173   -3.01138839240056
H         0.13455276717951    3.75311049254237   -4.30712289627214
H         1.04227728172260    5.55571913651518   -2.97736617498098
H         0.74485748232929    1.30071177164314   -4.02684923797559
H        -0.04454561704153    1.26907537238728   -2.50532929197322
H         1.54017839483441   -1.47056214337344   -1.19169622747341
H         0.40860853586705   -1.20466198096564   -2.50088209446757
H         0.31902688133608   -0.33837601532573    0.11715631895233
H        -0.86794209700962   -0.68503292597203   -0.67284994354430
H         2.24794362135086    1.60435954806743   -0.55832572191534
