35
 energy: -49.714448618614 gnorm: 0.108145107320 xtb: 6.4.1 (79825abcba525fcdf90b791dcacef51065a7a4e7)
C         3.57276934424943   -1.54369040501877   -2.86786926950187
C         3.00361022133309   -0.15575203971044   -3.12315220108453
N         4.02618842236826    0.92169479414834   -2.98414100750434
C         3.70443716178994    1.66935640716845   -1.96811609742354
C         4.21075287994994    3.05199857412055   -1.70524747909921
C         3.55381086431689    4.01646272592464   -2.70001289952459
N         3.81202612863716    5.24799783703686   -3.01032069812182
N         2.55458794771349    3.35238172418829   -3.39179309442699
C         1.28919703607834    2.89081580690725   -2.78875931947564
C         0.20624152395324    3.88889867160497   -3.27421764669291
O         0.11703345220165    5.16495022393161   -2.64004077276277
C         0.93248886381373    1.41343665389448   -3.06513160213252
C         1.82551473037862    0.42731097421456   -2.25889801789336
C         0.98065963023923   -0.66161960938663   -1.52763434618680
N        -0.01816706664996   -0.05432958388984   -0.63430013723143
N         2.60074153302431    1.20721723990339   -1.27384648311986
H         3.90088204025708   -1.71494945655070   -1.83574037208529
H         4.52193303175757   -1.58213819202511   -3.41261887570380
H         2.94501072049497   -2.40422745593173   -3.10816646471216
H         2.67769873500118   -0.12864023921268   -4.17184713119100
H         5.27176074805556    2.92169009048032   -1.93317100943702
H         4.15008221269550    3.28649390829142   -0.64067949939424
H         4.75486580198613    5.58369826582668   -2.77674816245439
H         2.31461211833645    3.70049821784526   -4.32299237896857
H         1.29177828401727    3.15217494779561   -1.72187384257399
H        -0.76856873351295    3.41270151152315   -3.12721825051808
H         0.42387730381070    3.96621010980971   -4.34686714303775
H         0.42266737473281    5.85873690722032   -3.25495150038839
H         1.01961240351702    1.14860377151710   -4.12736661728940
H        -0.13991289102856    1.27990211003596   -2.86879551386839
H         1.70583159401706   -1.28274326336596   -1.00249209703951
H         0.57755735336939   -1.29350030399493   -2.32883097777955
H         0.43178450185135    0.14123777632602    0.25659465401933
H        -0.89982488098992   -0.54994465753233   -0.49273646015666
H         2.21978985056740    1.65209553584668   -0.44125260240922
