35
 energy: -49.711208026491 gnorm: 0.109779649953 xtb: 6.4.1 (79825abcba525fcdf90b791dcacef51065a7a4e7)
C         3.54381970197764   -1.46968229005937   -2.22492895832394
C         3.01371991769150   -0.24988591294021   -2.96423637792319
N         3.99034512201575    0.85865340344236   -3.17214452290165
C         3.88748315668106    1.67855771401978   -2.16616005422244
C         4.40955353015546    3.07872316357925   -2.10186259930967
C         3.79267007138536    3.83280253113173   -3.28598306305391
N         4.39299740754172    4.53422316539773   -4.19552194916854
N         2.42590432462694    3.74390742731961   -3.49106571637565
C         1.34220243237564    3.07422579712135   -2.74606658899718
C        -0.00422218399355    3.80186891359465   -2.99568245706789
O        -0.89379262858426    3.75116265342642   -1.88009326097525
C         1.20572686076472    1.59157667867025   -3.15764593370677
C         1.89109341238456    0.55976642534097   -2.21658696076961
C         0.90327172218792   -0.32114593161582   -1.39045241660033
N         0.24038565168516    0.57125465556024   -0.42675888227537
N         2.77024436296821    1.41446237984905   -1.39430636374719
H         3.32736509870326   -1.31194368268305   -1.16165871076624
H         4.59786396318136   -1.75831583455795   -2.29438000579411
H         3.09886792319688   -2.38003384131516   -2.63190025285970
H         2.57210721428057   -0.55047915675742   -3.92409904932534
H         5.50246359619629    3.08144279049852   -2.11626114814554
H         4.28338516473721    3.47655972964875   -1.09301097642318
H         5.40323277665398    4.67613968463555   -4.07109621982709
H         2.32014720972963    4.01861130020059   -4.47048330562947
H         1.57856270460811    3.31837779567847   -1.70151715652877
H        -0.49754036346726    3.40285127099102   -3.88789862426412
H         0.17563897423329    4.87301123041591   -3.15132124180673
H        -1.65370433197940    4.34763713599634   -2.02016343901846
H         1.50353579580697    1.57458381395753   -4.21457132940430
H         0.13758847105541    1.34009083963706   -3.20518674345374
H         1.41114036098711   -1.10716505559099   -0.83216329858375
H         0.15755896747663   -0.86044161186674   -1.98774075539621
H        -0.19635552258277    1.39665655450528   -0.82970477096504
H        -0.47744879786704    0.13025325544251    0.15049890474410
H         2.54361388469252    1.82754316962688   -0.49194481778643
