35
 energy: -49.721031477098 gnorm: 0.111545902646 xtb: 6.4.1 (79825abcba525fcdf90b791dcacef51065a7a4e7)
C         3.47154112007959   -1.49598160124289   -2.57856808837162
C         3.01103214128352   -0.18680424564896   -3.20264387713757
N         4.02038488395465    0.91151113907010   -3.17449490152157
C         3.77807845154722    1.61094354088724   -2.10355590668964
C         4.42245748720292    2.93039811137840   -1.81900320702598
C         3.52135315367883    3.93002644343134   -2.55390210431245
N         3.94799942007542    5.11215991419655   -2.87041157187925
N         2.42700002415976    3.45463969505945   -3.25704399909391
C         1.16125592541704    2.84348770785734   -2.80727504941515
C         0.07207831736118    3.76986702547379   -3.40739615740189
O         0.02616410013333    5.03633413957442   -2.74982570836556
C         0.89484642422737    1.35083340091439   -3.10270804106915
C         1.87201191630539    0.43387531019685   -2.31258958502348
C         0.93913256668790   -0.56784762107984   -1.56386809376482
N         0.01901252641001    0.21285221430916   -0.72220969187666
N         2.70526198377533    1.17621498465150   -1.34605811599664
H         4.52538579566846   -1.56868491319046   -2.87251249783719
H         2.86762827889694   -2.32114984872490   -2.97039550847252
H         3.47816462507099   -1.31885268723148   -1.50110386679646
H         2.99956247395548   -0.31936470933308   -4.29306149627379
H         5.44150464428706    3.09651043604132   -2.17763495067177
H         4.46407931600715    3.05532669556725   -0.73519765456292
H         4.82481278200148    5.38736290538075   -2.41034721978819
H         2.24037364233043    4.10667936990923   -4.02249841671766
H         1.01418569317272    2.95447894410145   -1.72440331618992
H        -0.89088705279087    3.26652589317267   -3.27333274457760
H         0.26465873839753    3.94984904106001   -4.47249642867440
H         0.86638627430509    5.51537692636873   -2.88178012268966
H         0.99918161158665    1.24738440326076   -4.19104745953186
H        -0.11188431015358    1.11217799235019   -2.73397819312172
H         1.51891366089940   -1.36283531563861   -1.09558205716383
H         0.35318305784601   -1.06896972305900   -2.34439389641530
H         0.60763117142794    0.45249853537362    0.07182700364406
H        -0.71867992136705   -0.41978259268283   -0.40823813053297
H         2.24156717035318    1.74875452797641   -0.64360593195792
