35
 energy: -49.716686996987 gnorm: 0.117611283578 xtb: 6.4.1 (79825abcba525fcdf90b791dcacef51065a7a4e7)
C         3.64004602522124   -1.36085101563458   -2.44193292414585
C         2.95732226519843   -0.12441803484900   -3.00815385671786
N         3.96923384815101    0.97073310936721   -3.05875918357509
C         3.71882866600289    1.74327836644690   -2.04126251963762
C         4.30998623850578    3.11659920653651   -2.00030544551619
C         3.75246258374375    3.78331409579388   -3.26362679118622
N         4.38948087808176    4.49045012853827   -4.14329215278658
N         2.53475941870137    3.40227425626481   -3.80215953664987
C         1.41870091733499    3.07989009735205   -2.89200082869980
C         0.17678860532408    3.98097074755940   -3.11636500951988
O        -0.88620770760481    3.96389147624595   -2.16337336208625
C         1.06800953245594    1.58203015561118   -3.03236699426369
C         1.81331232904233    0.53645169343719   -2.15416368849040
C         0.81276063921431   -0.33076013533474   -1.32885378709964
N         0.04971747049271    0.44549071782095   -0.33905498286880
N         2.69004012725716    1.28938431186401   -1.23547019560134
H         3.60400493888979   -1.36233654215511   -1.34604218870110
H         4.70622557067146   -1.39444802395392   -2.68946975862514
H         3.15757042635903   -2.30875761158840   -2.68899168615440
H         2.62716644577035   -0.21689299623704   -4.05178210094507
H         5.39077121593213    3.18197419413707   -2.14962748217110
H         4.13354434237788    3.60028923133273   -1.03755615412977
H         5.31316929662198    4.80912834783663   -3.82479338431191
H         2.28223250897455    3.94976973607882   -4.62822518945870
H         1.75450566801356    3.35701776887030   -1.88353897766896
H        -0.24335200591544    3.66243736386933   -4.07586797611657
H         0.67749405860531    4.95591537467380   -3.16829144153506
H        -0.48508820905890    3.99696384772628   -1.27406091690069
H         1.33499905922983    1.45068050968286   -4.08950183139394
H         0.00314825397494    1.33393921738213   -2.92774293073087
H         1.36503136901199   -1.13537105260895   -0.84404284289835
H         0.14647695422221   -0.89955390095073   -1.98932360865899
H        -0.94468075673338    0.50034714288619   -0.54535444662463
H         0.22605115123142   -0.02750492714823    0.54873814303766
H         2.31413851723402    1.73611868175727   -0.40157582003153
