35
 energy: -49.713693760739 gnorm: 0.120329956426 xtb: 6.4.1 (79825abcba525fcdf90b791dcacef51065a7a4e7)
C         3.67667796706705   -1.43938655889523   -2.69813410713684
C         3.09555513585721   -0.11939397951721   -3.18331479829813
N         4.13264528530940    0.94835920268253   -3.08217541004080
C         3.81583573310874    1.66280237489890   -2.04100727703894
C         4.35607333445642    3.02896604286806   -1.76012456240130
C         3.63506933144796    3.98060101452821   -2.72234402629195
N         4.22794859566833    4.86688945117454   -3.45897948386395
N         2.32427872833420    3.73030483576751   -3.09273525545902
C         1.23314421650839    2.92558788561420   -2.50984325188992
C        -0.08368282544697    3.64294197520190   -2.90481349343788
O        -0.30817386952023    4.89519068346252   -2.25679891012468
C         1.19797147716918    1.51293091406555   -3.13389030119673
C         1.93900943055396    0.44541655185221   -2.27877185504584
C         0.90686287732161   -0.56172458825997   -1.68325797316767
N        -0.33387143451644    0.17715743224588   -1.40195082935474
N         2.77590417571321    1.14930903941722   -1.28695559133267
H         3.81010470168760   -1.66024142474343   -1.63244272832747
H         4.58252250416867   -1.46250726805548   -3.31299441200578
H         2.95604140559328   -2.17123820798103   -3.06884124664917
H         2.81475367284348   -0.27300854230243   -4.23415614189740
H         5.40152142830456    3.10073401121250   -2.07085722283488
H         4.25300475619564    3.29493643651401   -0.70626944392624
H         5.24374302424741    4.79435017865166   -3.32078649192616
H         2.05649520254285    4.40862611871768   -3.80972745999945
H         1.20257911835788    2.88775791457671   -1.41248526303275
H        -0.93204224227308    3.00104497549257   -2.64619768372045
H        -0.16608314185693    3.88496972551011   -3.97184305533052
H         0.34744663821313    4.95223119312549   -1.53584441006140
H         1.52781296184287    1.42075408121512   -4.17733567028616
H         0.13880970316984    1.22240528267099   -3.14789313464105
H         1.13815818947705   -1.28590201929311   -0.90254491645616
H         0.70563204927417   -1.19536845289446   -2.55600210762112
H        -0.10732063418851    0.95286397189933   -0.78441488759405
H        -0.87995354217198   -0.41069023669266   -0.77010865164386
H         2.41794796381369    1.83035639522442   -0.62040076594224
