35
 energy: -49.727671862492 gnorm: 0.112882439304 xtb: 6.4.1 (79825abcba525fcdf90b791dcacef51065a7a4e7)
C         3.65006551236304   -1.36004387271780   -2.85387406740181
C         3.12175529043636    0.05484628382779   -3.03950423543295
N         4.10847878822339    1.12765984468388   -2.72118083953113
C         3.54829372942693    1.79731694178494   -1.75547876744481
C         3.87026858954921    3.23446837611193   -1.49455178893124
C         3.61183054331668    3.83508376192812   -2.88156049634546
N         4.31358922127108    4.64609138979308   -3.60919104214027
N         2.46578571527246    3.39258578643750   -3.52092476872722
C         1.28164391824122    2.92559667144347   -2.77417423557919
C         0.03773993845777    3.80203598733852   -3.07281922641192
O         0.25521449893675    5.20246604110267   -2.89976885898591
C         0.93774445791252    1.43074031014574   -2.95695593930135
C         1.83831986723348    0.41111917130292   -2.20244395198358
C         0.84914907638069   -0.71466445677062   -1.76833693612592
N         0.06589595614159   -0.19640022616583   -0.63589766387790
N         2.50177953356097    1.15791792650386   -1.11539757988135
H         4.67556353363879   -1.49161918331500   -3.21900338203706
H         2.95673935398029   -2.08188857931313   -3.29815002675493
H         3.77433819386745   -1.65186068509291   -1.80900713628957
H         3.01530259031279    0.32230687710060   -4.09962076704432
H         4.92020299435429    3.44242022935749   -1.27305480241534
H         3.19908698334367    3.73919803475773   -0.79688623348723
H         5.19103874237163    4.96893027144617   -3.18251205153247
H         2.35849049469893    3.80532296579652   -4.45046301641440
H         1.53183061530094    3.12678819062166   -1.72370363665319
H        -0.80726983177087    3.54050565536356   -2.42769291253500
H        -0.24709104742674    3.63618103104230   -4.11937680582611
H         1.14600917879111    5.38584472627663   -3.25434516433506
H         0.95525977163968    1.18158213155439   -4.02638738582267
H        -0.07164269395910    1.21867198887032   -2.57934572317605
H         1.43811926652117   -1.60807172321220   -1.56247065966029
H         0.27873283663866   -1.00456861477840   -2.65955048869575
H         0.52710468422236   -0.31124070211566    0.26326567552224
H        -0.72100184189435   -0.84551504623773   -0.58653276716218
H         1.96467235576760    1.67012169140453   -0.41867908678033
