35
 energy: -49.726306716696 gnorm: 0.096190592079 xtb: 6.4.1 (79825abcba525fcdf90b791dcacef51065a7a4e7)
C         3.46510577250059   -1.43488317861556   -2.89020742266576
C         2.95421545871578   -0.02169272932205   -3.12972422721078
N         4.12949124390426    0.86590184298605   -2.89142878556332
C         3.77395505256080    1.63868080650989   -1.90591617043834
C         4.32139975789688    3.01325360654616   -1.68680694153370
C         3.65986963317896    3.88912215496638   -2.75757972871971
N         4.11795861380060    4.97362273255699   -3.29948173807357
N         2.38541802543725    3.58440778088562   -3.20583421366009
C         1.13611313644496    2.99257033623186   -2.68923699279727
C        -0.02547731666530    3.78650305284654   -3.34116513144856
O         0.04246726427746    5.14451502895942   -2.90569645497923
C         0.94803056474006    1.49193854508916   -3.00388075017901
C         1.82083306567344    0.50641730147425   -2.17507717987226
C         1.03764316871423   -0.69884010348503   -1.56822898941951
N         0.10185064504100   -0.29689695836237   -0.50651526599680
N         2.66939347696897    1.20911905155197   -1.19237050374345
H         4.39715608342729   -1.48954487740438   -3.46516133672374
H         2.73630080442904   -2.21878927468206   -3.12145757739911
H         3.79285655309807   -1.56922964250817   -1.85730949739807
H         2.64129539306301    0.18030843628282   -4.16316072249659
H         5.41201814001977    2.95122926593776   -1.72384288685880
H         3.94170023230050    3.42728641274107   -0.75065571829229
H         5.07231997719198    5.21416948298462   -3.00362837471747
H         2.34673145075230    4.20657873368650   -4.01658217551125
H         1.03171515690778    3.35080230983821   -1.65611996361769
H        -1.00872100639041    3.47161004217050   -2.97688250293172
H         0.00622140546343    3.75151721842303   -4.43738158483205
H         0.96693566657509    5.43581441816983   -3.02132560662895
H         1.10329355705208    1.31281970971308   -4.07620535237588
H        -0.09178954023079    1.15130325158324   -2.90813832400365
H         1.73037810562805   -1.38736593933822   -1.08501698441319
H         0.57427651498801   -1.26452630383230   -2.38613556832209
H        -0.10176262699877   -1.10464749863187    0.07698900804827
H        -0.77505533656867    0.06108778627627   -0.88845492900917
H         2.30506158205327    1.82605138141748   -0.46924516977677
