35
 energy: -49.719374564626 gnorm: 0.126326651688 xtb: 6.4.1 (79825abcba525fcdf90b791dcacef51065a7a4e7)
C         3.65984736013874   -1.35756626288040   -2.78206129115426
C         3.12813800427776    0.03728608694786   -3.07728411141567
N         4.11950669193859    1.11041432230275   -2.77485080269944
C         3.77215839085806    1.76985970884122   -1.70746644953257
C         4.07525708657522    3.22939064163723   -1.58476532744716
C         3.63295523437603    3.79066976597631   -2.94147347366749
N         4.42897906971401    4.45592176188069   -3.71828145103113
N         2.39754374680857    3.42901580318171   -3.45233029616063
C         1.19843723766877    2.93239399388468   -2.74989359787983
C         0.01259734033419    3.86538058880071   -3.10759676424451
O         0.01903145375775    5.11620758787581   -2.41923903242211
C         0.94636674744367    1.41993224915210   -2.93748745763348
C         1.90299581226221    0.45317811840679   -2.18237225979649
C         0.93028168306855   -0.65427694956601   -1.67083826614171
N        -0.33470442819990   -0.12978399246544   -1.13304719655672
N         2.65779803848102    1.17762397745614   -1.14073474760529
H         4.55771008018609   -1.43167318675233   -3.40706399613036
H         2.98728598544539   -2.19894575245162   -2.97925111162209
H         3.89273698373867   -1.38919300511136   -1.71570776698411
H         2.84477355773502    0.16132207737575   -4.13134012310740
H         5.11932231066185    3.43758277813881   -1.33727599531227
H         3.49102397850824    3.65957289001100   -0.76892900513839
H         5.39020061979746    4.53388425239841   -3.36307370351335
H         2.29707545325251    3.62865795281728   -4.45030560538288
H         1.48330242991051    3.15762271014241   -1.71322405801682
H        -0.85869264808789    3.40961821652054   -2.62618009547232
H        -0.16607098213910    3.88195241486798   -4.19005799796374
H         0.76777168085691    5.62664120557134   -2.78216168783300
H         1.01345433182567    1.22729690263743   -4.01658943828754
H         0.01902959654953    1.25862943747218   -2.37140257576255
H         1.44946231228150   -1.37354946976572   -1.03795449817607
H         0.78262428852143   -1.25384632724800   -2.57769799242206
H        -0.19932865786531    0.36118581181489   -0.25269579698036
H        -0.93650987392742   -0.94853335158125   -1.03070083844187
H         2.20969877436389    1.72693302789458   -0.41017325983018
