35
 energy: -49.719297846090 gnorm: 0.131000804719 xtb: 6.4.1 (79825abcba525fcdf90b791dcacef51065a7a4e7)
C         3.57439333595327   -1.35060923875810   -3.06904043380458
C         2.94777165040174    0.03272103492992   -3.16509784693931
N         3.98582985454394    1.08542855141939   -2.96478799688556
C         3.70772116946942    1.71176221278361   -1.85790493180793
C         4.14588320912009    3.11267223364180   -1.57046786134216
C         3.53483743930960    3.88118542899809   -2.74831875520013
N         4.05681197068977    4.84184185613566   -3.44425454673341
N         2.33806626726786    3.41993110214385   -3.27080612906206
C         1.15343685263866    2.98155226641718   -2.50766517597237
C         0.03852563292687    3.94619790244694   -2.98835590695305
O         0.44166115362585    5.22280575807529   -3.48454143212402
C         0.77133698098845    1.49486720115022   -2.68098195917872
C         1.81846935841701    0.46892080486832   -2.16050197342842
C         1.11440501898957   -0.78866516930645   -1.56295075325838
N        -0.07802934648295   -0.31404021575547   -0.84369182179330
N         2.73025835754925    1.03756033801663   -1.14815478870704
H         4.44963284198005   -1.42225067104667   -3.72562324352887
H         2.88860978647604   -2.14038461821950   -3.39322840969216
H         3.81635054743873   -1.56633910962568   -2.02632043796005
H         2.69140762088349    0.31778112070054   -4.19453101065237
H         5.23874788049811    3.13005105691788   -1.56701565318092
H         3.67521347835909    3.52173341071886   -0.67430216370623
H         4.98553868549913    5.15337566364406   -3.13343154455952
H         2.27419643326932    3.66368772900170   -4.26197157468529
H         1.34074032340809    3.24329152463032   -1.45744146496057
H        -0.82281052937178    4.05500671660902   -2.32135647758950
H        -0.34865899752951    3.34395771649782   -3.81980894420359
H         1.41741085202553    5.23479450745505   -3.50976155956624
H         0.80036862762298    1.28656121073326   -3.75886691631606
H        -0.16839889969851    1.29869240372865   -2.14728093858619
H         1.84465247521058   -1.31675677617668   -0.95033238672665
H         0.67932651288816   -1.42973268903246   -2.33975177532433
H         0.13069332677057    0.19205069048186    0.01345657666187
H        -0.47238881546988   -1.15671516191047   -0.42253314426059
H         2.21880558618960    1.53049484311882   -0.41898737342227
