35
 energy: -49.721463685956 gnorm: 0.113323667648 xtb: 6.4.1 (79825abcba525fcdf90b791dcacef51065a7a4e7)
C         3.51486214889371   -1.49057577041302   -2.34007772847396
C         3.00099537906528   -0.16495497589740   -2.88243821495120
N         4.09922661287600    0.84466644456772   -2.90328895438161
C         3.80543974461428    1.74984069668602   -2.01493245158171
C         4.48392495227827    3.06602989175551   -2.22578487604403
C         3.79084288596121    3.87470973130023   -3.32896044741302
N         4.41986114813298    4.64468473053104   -4.16029632397108
N         2.44077437683586    3.74116251061015   -3.60733070583928
C         1.35233442506063    3.11667002055505   -2.83066180637279
C         0.04062702045395    3.92787125611104   -2.99193200802173
O        -0.78648553489861    3.47163763597813   -1.92133326365857
C         1.11528930183024    1.61712980167146   -3.11607431472452
C         1.85326774063103    0.63441265888222   -2.16234135687375
C         0.84434720201736   -0.25062676465275   -1.36667738892875
N        -0.01777215173145    0.58650457122727   -0.51787627561296
N         2.68803704177035    1.44870905075750   -1.25700243509404
H         3.85202834498440   -1.49904484065336   -1.29675375670803
H         4.30920757007063   -1.89214092695738   -2.97796710650751
H         2.61424457775654   -2.09237491831786   -2.47818438265450
H         2.79704990486685   -0.39748711847189   -3.93650153054240
H         5.52577889894553    2.89613824827226   -2.50923561125687
H         4.44285242593674    3.75168727303851   -1.37716187085568
H         5.44042262977706    4.65027228364875   -4.03938062036487
H         2.17100168496581    3.99625855852994   -4.56024953334211
H         1.66099338906187    3.10844955537428   -1.77651667176945
H        -0.49637150037411    3.75021121613102   -3.92932044999580
H         0.26350755868678    4.99762429372707   -2.89257387828376
H        -0.16799353752156    3.43570440151660   -1.16698340147557
H         1.37343704838249    1.44463292959217   -4.16948534069820
H         0.04392198121422    1.38142254565309   -3.06094690096247
H         1.48015588349178   -0.88258801406838   -0.74714880083836
H         0.37025859035794   -0.96620584592322   -2.04995425806608
H        -0.77384413819519    0.91199760960355   -1.11520865759257
H        -0.46880823577260   -0.03025136476899    0.15974725847406
H         2.13606569967755    2.03514971378685   -0.63437215463847
