35
 energy: -49.714967195696 gnorm: 0.117637463757 xtb: 6.4.1 (79825abcba525fcdf90b791dcacef51065a7a4e7)
C         3.49160918622462   -1.37262093986387   -2.79054211110527
C         3.05947331401433    0.05344958203937   -3.09886969026144
N         4.05031957857884    1.12395418051418   -2.78561965797390
C         3.51020586784582    1.76899078251694   -1.79212412053498
C         3.97702836173833    3.16492894895620   -1.52643948185422
C         3.67773701330322    3.88851311649619   -2.84483731524193
N         4.55559573260386    4.56862425634430   -3.51301223066963
N         2.45083462464419    3.58537342962959   -3.41125299023251
C         1.27879129444405    3.03102627999477   -2.70632700478764
C         0.01457417015332    3.80844342198075   -3.15578165811541
O        -0.06475734693920    5.21527604458042   -2.92561990355502
C         0.93387024538025    1.55513804109679   -3.00474770085372
C         1.77132180702685    0.45586112931731   -2.29045305476841
C         0.95077968663224   -0.76769179329223   -1.77671632107807
N         0.27445294958509   -0.30358261900667   -0.55537001508486
N         2.44544171838927    1.14177713031770   -1.17034657020625
H         4.39202549174574   -1.54491798168421   -3.39207506098906
H         2.74180048897734   -2.09639204211064   -3.12682233382486
H         3.74808773314907   -1.40047323860756   -1.72950927879692
H         2.89866013444751    0.19646143098052   -4.17608886554561
H         5.01909726237904    3.27058397242942   -1.21403500958249
H         3.38934820365454    3.58393798529872   -0.70727071783551
H         5.44851640642844    4.61547804345772   -3.00636150259813
H         2.52839346130735    3.91690697344623   -4.37560548085521
H         1.49739536040240    3.22125697748720   -1.64680615808799
H        -0.80238051836557    3.39457972413519   -2.55584043164350
H        -0.15442769623975    3.48074754366907   -4.18920950275397
H         0.63048176840187    5.73888956467510   -3.36759129673164
H         1.30561995042946    1.50267785275805   -4.03679436312062
H        -0.11868104904274    1.27355605729808   -2.86592327122278
H         1.56871552171412   -1.66309575939007   -1.71466473838845
H         0.14951206876357   -0.98579852659176   -2.49371029976301
H         0.88155461506972   -0.56592382928969    0.21728851071254
H        -0.51304760895361   -0.92107222982603   -0.35154524289697
H         1.87469083763462    1.50639423214233   -0.41037862588022
