35
 energy: -49.718393380356 gnorm: 0.108497460724 xtb: 6.4.1 (79825abcba525fcdf90b791dcacef51065a7a4e7)
C         3.59034562375627   -1.45833560988751   -2.40485782396748
C         2.94799027162162   -0.26354021449245   -3.09429820061497
N         3.92002952354580    0.85213468408733   -3.28480079573771
C         3.81825426465451    1.59788674537194   -2.22257478558157
C         4.51691478033660    2.91424327330306   -2.09516235222489
C         3.78049238641962    3.88500473248882   -3.02609008149320
N         4.37868370423622    4.90070132182803   -3.56476659804845
N         2.46881295308563    3.63166742760108   -3.39122991726916
C         1.25320159655131    3.01054266779445   -2.83051606713945
C         0.04678859890401    3.86855336872706   -3.29205387132400
O        -0.77042572550063    4.19006424673918   -2.16633744921640
C         1.09890681969040    1.50159952478013   -3.12301438179511
C         1.89491916348531    0.51434934431960   -2.22209642601926
C         0.83767475024957   -0.27516449062641   -1.38951084001910
N         0.04204963963092    0.63338645988648   -0.54926216047738
N         2.81146065174813    1.25927794812150   -1.33632554555826
H         3.94740901271146   -1.21343984027075   -1.39748029543588
H         4.43703758211145   -1.81729193140334   -2.99933673273349
H         2.79990405865323   -2.17064594270160   -2.15957473261099
H         2.67178619576900   -0.52695993319284   -4.12436411672476
H         5.52612954209212    2.75872547015752   -2.48499170781804
H         4.68312837974669    3.39788310916854   -1.13056940882832
H         5.37627716715907    4.91323410628325   -3.31809317234933
H         2.22997365750181    4.29633784330659   -4.13087485358972
H         1.22275067660730    3.02614936450027   -1.73261394787898
H        -0.62935926639841    3.41233591121862   -4.02233962630110
H         0.37713418939066    4.88551313485128   -3.53819195521694
H        -1.36443963779777    3.45742818703722   -1.91482375901497
H         1.35736355514861    1.30191621922420   -4.17153568053819
H         0.02391895881018    1.33982327146018   -2.96599709184339
H         1.43928608771293   -0.82581341181649   -0.66681246540333
H         0.23748055788628   -0.94955612306739   -2.01292368367922
H         0.53020319115702    0.77781016906639    0.33121750652769
H        -0.76379480166930    0.05759044498005   -0.30012610294210
H         2.48868676684259    1.92296446631278   -0.63519023949816
