35
 energy: -49.724330684180 gnorm: 0.112896872932 xtb: 6.4.1 (79825abcba525fcdf90b791dcacef51065a7a4e7)
C         3.66951571997029   -1.37902662158090   -2.79360059193036
C         3.02314896031844   -0.04050032913720   -3.11924120579487
N         4.08064350170014    0.98635529238436   -2.88868791330713
C         3.74219223531271    1.68623420957359   -1.84444241965630
C         4.32470618115106    3.04398748966502   -1.61133632889441
C         3.67301060307483    3.85446624934447   -2.73816339663784
N         4.13268880722798    4.92989984463002   -3.29653902726614
N         2.45032189051695    3.48708928070569   -3.27489081931310
C         1.23725896617561    2.92585403661390   -2.64927086510708
C         0.07576633337934    3.75382381938605   -3.25757403876393
O         0.01702574646365    5.13849568151858   -2.91452981750601
C         0.95473642735972    1.45160715380220   -3.01402927580267
C         1.83234038784140    0.44672902281748   -2.21403995585939
C         0.96806233880755   -0.64361903058257   -1.50802216835840
N        -0.32307581504837   -0.17704127684126   -0.97908982150306
N         2.62747293936232    1.17415028236129   -1.20499116083052
H         4.61521629355678   -1.47384688182060   -3.34035211012833
H         2.96525615452292   -2.17540714717471   -3.05616220952112
H         3.74036328706994   -1.64382510893915   -1.73661901950184
H         2.77362386108030   -0.06207081980930   -4.18881418226153
H         5.41292857214932    3.09879270348876   -1.69756597411765
H         4.18668982434759    3.50268936600058   -0.63025628322442
H         5.04610173006475    5.15467479519546   -2.88259383203503
H         2.32627773581583    3.83845150844783   -4.22728949188244
H         1.20139950105649    3.01679156917667   -1.55519392490010
H        -0.91872720089411    3.46546933074849   -2.90195922552295
H         0.20552251937106    3.64156862877415   -4.34130898803286
H         0.82124755313998    5.51353928771644   -3.32126909640934
H         1.07943191427541    1.32789925818182   -4.09810381267961
H        -0.12646022469798    1.32019063186133   -2.87201389517809
H         1.58925665578587   -0.98506687761148   -0.68039039815493
H         0.71332671420344   -1.41244594668698   -2.24808678650375
H        -0.32440701664140    0.51202108030643   -0.23103378879165
H        -0.95609945564253   -0.94068586583713   -0.73593741432471
H         2.13044165848501    1.59736958146581   -0.42390294467345
