35
 energy: -49.726959665091 gnorm: 0.099593631019 xtb: 6.4.1 (79825abcba525fcdf90b791dcacef51065a7a4e7)
C         3.66575498160984   -1.32604613768764   -2.72173827764273
C         3.06693995458575   -0.02287658857061   -3.23031881095655
N         4.10791026297788    1.02452783143479   -3.01769986328105
C         3.67367051995116    1.66574013590610   -1.97122431641059
C         4.21909520722120    2.98450291850401   -1.52341675778297
C         3.65055218831104    3.82222923140230   -2.67506585904037
N         4.38050118773357    4.64173529889188   -3.36443445532935
N         2.35166899846375    3.60324528455880   -3.10280211718611
C         1.11841066371651    2.93069123077652   -2.65041747090028
C        -0.08920041775992    3.71418532345931   -3.22699730887881
O        -0.10211987918556    5.07068968882912   -2.78182885826865
C         0.95916788626937    1.46482915414196   -3.11102756230939
C         1.83829280025074    0.42654165009364   -2.35667341999060
C         0.86283220682988   -0.60314569873466   -1.70666019644327
N         0.12060867004186    0.19022933210683   -0.71461066278632
N         2.62705783045228    1.07208964702740   -1.28864978399275
H         4.54867316875658   -1.68529878282382   -3.26365219890946
H         2.89904526182908   -2.09633174410525   -2.85574714580979
H         4.05684067860915   -1.12978450847372   -1.72129786283541
H         2.77764110470558   -0.06093221803163   -4.28936195230666
H         5.30035825247420    3.05715293790838   -1.66575211605811
H         3.93899015572222    3.23326274431794   -0.49792482352598
H         5.36614671950171    4.70207763025693   -3.07972539447016
H         2.26239435192462    4.13808879076080   -3.96991113919073
H         1.12091145562388    2.91648024977454   -1.55207705372568
H        -1.05279638157261    3.33818265128889   -2.86820433065873
H        -0.03659950657778    3.51195452292906   -4.30414872640314
H         0.63038677890165    5.59153391712883   -3.16264711578639
H         1.17408994485377    1.43259177761511   -4.18752163066941
H        -0.05127127701874    1.05876367227708   -2.96768042606547
H         1.49339987733319   -1.35601185217779   -1.23440990290986
H         0.17600623204930   -1.04731107732724   -2.43787009246679
H         0.51743925210989    0.23112764558932    0.22093696170103
H        -0.85272520249134   -0.10445154443219   -0.62091198721435
H         2.12615381957139    1.50502860690368   -0.51540175040792
