35
 energy: -49.723926287112 gnorm: 0.115580140648 xtb: 6.4.1 (79825abcba525fcdf90b791dcacef51065a7a4e7)
C         3.56500856027558   -1.41773002203147   -2.63753158631255
C         3.00466489321494   -0.07498234135754   -3.08309648762305
N         4.03008989793228    0.99473201432489   -2.90961233963894
C         3.73159633415432    1.76027970633739   -1.89982686208729
C         4.07208992288834    3.17534250196945   -1.55512945487551
C         3.61590525495048    3.95221298129833   -2.79597190133468
N         4.28682530215094    4.83496173535729   -3.46699032539169
N         2.46441747763630    3.48223573425982   -3.40523959755362
C         1.26132100256068    2.93981737641396   -2.74474874460711
C         0.01140604355191    3.76961381249148   -3.13689960704104
O         0.05036259869021    5.15507864189621   -2.79424009007230
C         0.99195197547577    1.45082707228117   -3.05558589561474
C         1.86589194719838    0.51504906746394   -2.17212671087208
C         1.02943220035414   -0.67799084468519   -1.61419535058944
N        -0.12810952683983   -0.16207274914547   -0.86691518897364
N         2.67744645005665    1.23732074626138   -1.17249687079896
H         4.32171952412070   -1.75569178214270   -3.35547869196619
H         2.85051827696151   -2.24444852048302   -2.70951934485384
H         4.08715417898466   -1.32848767575194   -1.68267692701588
H         2.69867691854149   -0.17438411018336   -4.13343217710541
H         5.14931799521671    3.33240211644901   -1.45725664649689
H         3.64735423834188    3.40829453123698   -0.57670882466497
H         5.25165975170093    4.84440719341164   -3.11315019891745
H         2.32152271165903    3.88253001852241   -4.33542837360550
H         1.43077863748943    3.14191923482738   -1.67844727110677
H        -0.80360531944572    3.22335577327842   -2.65111546789929
H        -0.12461032798075    3.64331935663729   -4.21831931571186
H         0.95754262956782    5.46938751442612   -2.97059650378675
H         1.17442986717846    1.30286007441591   -4.12837561800943
H        -0.05253998770923    1.26566184044202   -2.77067319819869
H         1.61643042310791   -1.27011533544913   -0.91257933827126
H         0.72645646910034   -1.24467554521088   -2.50343933280604
H        -0.52122992354875   -0.87928166183507   -0.26237878275074
H        -0.92017477617721    0.14963176952527   -1.43124489492044
H         2.32222808686355    1.63014695007824   -0.30315174642513
