35
 energy: -49.727529269738 gnorm: 0.107829761735 xtb: 6.4.1 (79825abcba525fcdf90b791dcacef51065a7a4e7)
C         3.67064614410353   -1.35220186083284   -2.92821187043303
C         2.96080726390390   -0.03081665008296   -3.18424758901786
N         3.97319273382160    1.04122851079695   -2.95692225769601
C         3.62670339430552    1.69474465301116   -1.88561922691781
C         4.21210606246777    3.05046366531128   -1.64795441050771
C         3.56394981968420    3.87928754398444   -2.76342141124380
N         4.05450027374765    4.97761332607977   -3.24579627875058
N         2.46221090393625    3.29431416343919   -3.36507524487676
C         1.19371262333075    2.90998257646918   -2.71614665853228
C         0.11703240370960    3.86850923249293   -3.28765184570050
O         0.27662684814903    5.20500222587665   -2.81145646001905
C         0.85001671121132    1.42907514302670   -2.99011346258411
C         1.80098706183951    0.45407245052195   -2.23846409397714
C         1.00726187313827   -0.71062368089383   -1.56930061784544
N         0.16882629675615   -0.06497584184598   -0.54721127791313
N         2.58455292263513    1.12086612614773   -1.17970650271632
H         4.34422880842998   -1.47752724948821   -3.78428290514578
H         3.01810907137020   -2.23056295963736   -2.97086414264017
H         4.19937302180606   -1.46393949233798   -1.97936507474454
H         2.52226313114488   -0.10001357314449   -4.18903872761852
H         5.28938414695176    2.96254650243452   -1.81046480006380
H         3.92643795032906    3.46798435164161   -0.68046064129155
H         4.89126694261449    5.33057593987281   -2.76471780953341
H         2.24515963273455    3.76749819145340   -4.24535430363143
H         1.12539047474531    3.04185570936396   -1.62779862750048
H        -0.81050204258176    3.50032421263035   -2.83737722080919
H         0.07974854158359    3.82549150477640   -4.38340670597315
H         1.10553428794878    5.52467475799935   -3.21591806408846
H         0.92555101398829    1.27567091614699   -4.07493229702558
H        -0.18380054230180    1.25627077216032   -2.66180660775571
H         1.66898277669629   -1.33511728496169   -0.96965361163503
H         0.37728044707536   -1.33654582406632   -2.21352539110576
H         0.02482371414074   -0.67498260758177    0.25375784675639
H        -0.81687430736229   -0.05059338453269   -0.81401185389591
H         2.04077436708004    1.57739928474316   -0.45023010300003
