35
 energy: -49.722186014567 gnorm: 0.117187496963 xtb: 6.4.1 (79825abcba525fcdf90b791dcacef51065a7a4e7)
C         3.59273514625545   -1.62014625246880   -2.63027503703146
C         3.00008124498725   -0.30639685831887   -3.11844337389492
N         4.07401526699243    0.71919591845085   -3.26234326172803
C         3.85314470969474    1.55690089978026   -2.29059485005565
C         4.47389920836006    2.90238784536772   -2.08691946637402
C         3.47446660920457    3.96519541305326   -2.55903888402124
N         3.75559557591468    5.22997177893193   -2.52818334206475
N         2.31013668232363    3.65082450978172   -3.23985942710330
C         1.16465806199927    2.84691413336357   -2.77133639965568
C        -0.13714968155912    3.59022043894436   -3.16810355942139
O         0.03653519906433    5.00489945174926   -3.25154702724880
C         1.08484036493364    1.37793033566019   -3.24249167571579
C         1.88351130816158    0.43644319866093   -2.29608879404942
C         0.92024604528812   -0.45712987358783   -1.45469485048160
N         0.09820851009469    0.39366431452083   -0.58010607713911
N         2.77774306194150    1.27049282364096   -1.46888401374757
H         4.43376376567154   -2.10490292167939   -3.14013728185272
H         2.78546645365858   -2.35775575222159   -2.68851219041144
H         3.88160412429762   -1.48663267163278   -1.58572896120432
H         2.67535890423082   -0.43850988991569   -4.15950820033573
H         5.38270092755911    2.98589589891331   -2.68839513352726
H         4.74066844555389    2.96489460434234   -1.03008405737126
H         4.69339251301940    5.47256925306297   -2.18484541188001
H         1.95739342210926    4.48093384799843   -3.72193441012146
H         1.07070027939808    2.96028429663757   -1.68281490894173
H        -0.92987575044084    3.18299670700138   -2.53219333902689
H        -0.48682289080336    3.42982209310544   -4.19568341006864
H         0.46073432735080    5.30580138651573   -2.42548384183916
H         1.47589160165427    1.27511435385587   -4.26355877392202
H         0.06423230958394    0.97598867006027   -3.18568518188155
H         1.63640362844682   -1.03809533465465   -0.87414268505028
H         0.22538460617525   -1.06666543494652   -2.04572335019426
H         0.77220994442696    0.98598743914384   -0.10128259832093
H        -0.45337245185415   -0.18497289641456    0.05545077129119
H         2.42210013591701    1.88721413870772   -0.74126707730060
