35
 energy: -49.728246840204 gnorm: 0.094337142985 xtb: 6.4.1 (79825abcba525fcdf90b791dcacef51065a7a4e7)
C         3.40905519890157   -1.53475818358391   -2.47030453707462
C         2.94601500139997   -0.16032018415090   -2.93073734899638
N         4.06066586918206    0.83127735345851   -2.94376625649658
C         3.81221339156821    1.67535641357758   -1.98427143753279
C         4.46464860953608    3.01368078862370   -2.12699858719290
C         3.78348925663378    3.87787392437774   -3.19494723636624
N         4.33634929751292    4.90548518627757   -3.75886715006893
N         2.53063150828829    3.53664475996596   -3.67652792127289
C         1.35484386880876    3.16839017119277   -2.86423550653679
C         0.06830201134387    3.85510406667552   -3.39136539003043
O        -0.95612818420653    3.83768201399298   -2.39703887982210
C         1.05704063941671    1.65883842253174   -3.00148817658269
C         1.83302509288913    0.62148541069047   -2.14026897275513
C         0.87969878937225   -0.35583456908678   -1.38507949125602
N         0.31372987395243    0.33267713453331   -0.21455277701185
N         2.70669729314804    1.36641287094866   -1.21218660259864
H         3.96057640773242   -1.56790076073912   -1.52320179921708
H         4.13354120989158   -1.86939563107670   -3.22015777355919
H         2.55292198509523   -2.21177193620622   -2.43811822205589
H         2.66800715195259   -0.33461645242417   -3.97909170437273
H         5.48330975627892    2.87625531335544   -2.49863125421247
H         4.55995072107157    3.59876757882769   -1.21017530169373
H         5.32554737380000    5.03617764532585   -3.51268792946777
H         2.34458330417631    4.09010129026695   -4.51615732315774
H         1.48765259389467    3.53912976229873   -1.83882150347565
H        -0.35807333394288    3.26926964345723   -4.21211485810029
H         0.22924599661857    4.88474872510216   -3.73465570449895
H        -0.50864262838267    4.19091968105739   -1.60467085291980
H         1.08208448430755    1.41944944399223   -4.07299922469476
H         0.05439630712232    1.52093191765017   -2.57474349711794
H         1.48620851436247   -1.18899928277307   -1.03092433721992
H         0.14193909550955   -0.74899243064053   -2.09558510821380
H        -0.66223481155515    0.58110513937620   -0.35658444689164
H         0.44805961741114   -0.09274905294467    0.70412189864670
H         2.29135016222160    1.95246889618550   -0.49088323048692
