35
 energy: -49.732485129895 gnorm: 0.106528967655 xtb: 6.4.1 (79825abcba525fcdf90b791dcacef51065a7a4e7)
C         3.61207104631842   -1.45922047792929   -2.70458758020770
C         3.04611938201670   -0.10474868539262   -3.10532352646799
N         4.03636428616129    0.99729951151953   -2.92986187347743
C         3.62092395762799    1.66521375889966   -1.89249583061832
C         4.18542286534395    3.02728580890019   -1.64098909823966
C         3.55854644703786    3.99508318030476   -2.65178897408953
N         4.23285029327629    4.99726628866792   -3.12145710005988
N         2.45619772585533    3.54632496191286   -3.35992257713930
C         1.23323593203821    2.96487490408784   -2.77324784060820
C         0.01892723665930    3.79078527244251   -3.27120192913842
O         0.20116762295060    5.20045333396562   -3.13677592204007
C         0.96274986337291    1.46644101378962   -3.03364113938850
C         1.82463017822906    0.42324062493354   -2.26627752131013
C         0.95321291380931   -0.70659230397714   -1.63508338675809
N        -0.16319581268532   -0.09357172582609   -0.89864649550585
N         2.56736374891714    1.10833074987484   -1.18991545567268
H         4.46143698480715   -1.71523012857149   -3.34903636622678
H         2.89673174148763   -2.28323679074203   -2.79639644417206
H         4.01147123777776   -1.49036262527298   -1.68878380338092
H         2.81655279940744   -0.14832115424452   -4.17868974142606
H         5.24025412319402    2.96622520994076   -1.92075644514309
H         4.17738037523092    3.34696705810742   -0.59709580785913
H         5.17235629267233    4.98837436389925   -2.70498743882681
H         2.16154586430922    4.23787120138831   -4.05335583190814
H         1.30174865130071    3.05628884779134   -1.68076929294066
H        -0.84846844065568    3.52596644414341   -2.65791299266074
H        -0.16012806237552    3.68412565413108   -4.34845874602167
H         0.74566016851871    5.36345004954769   -2.34315939055608
H         1.06048459491553    1.25175088629598   -4.10622039970477
H        -0.10901626885028    1.28623598690095   -2.87468087581643
H         1.60545403246592   -1.39795201366669   -1.10212313971068
H         0.49812201770862   -1.30947976739054   -2.43075900159948
H         0.17331723140549    0.43777595511632   -0.09938111382474
H        -0.57810797068000   -0.94981213248182   -0.52757324667483
H         2.00842913831268    1.76588184396302   -0.65003385344713
