35
 energy: -49.722068752522 gnorm: 0.114065473764 xtb: 6.4.1 (79825abcba525fcdf90b791dcacef51065a7a4e7)
C         3.28179343011039   -1.56430857855041   -2.75498127774414
C         2.84156778070415   -0.17783654414100   -3.20150241298608
N         4.02025221361980    0.73627004517231   -3.23303267464404
C         3.90495372652105    1.52081115984816   -2.20054542598069
C         4.71680965353513    2.77699583526436   -2.20724896294043
C         3.79094942041214    3.88755953465546   -2.71788904384928
N         4.24429005018384    5.09158750329264   -2.87423400668474
N         2.57282996395847    3.67598466818157   -3.34193304897793
C         1.35406868016037    3.11601233677954   -2.72633667425613
C         0.20816726344033    4.03556786847127   -3.22227960941982
O        -1.05744295740150    4.08484997702652   -2.56330465562145
C         1.01421783925168    1.62155443807940   -2.91964605191175
C         1.90233637264009    0.57451178672388   -2.18827826551325
C         0.95958234648472   -0.37857236824109   -1.39006651099734
N        -0.09217865997718    0.46296088265826   -0.79835496356686
N         2.90527653676782    1.19624693297277   -1.30108416690565
H         3.39936273150673   -1.51323187716116   -1.66601556909333
H         4.25613500698963   -1.90477283538934   -3.12088380626674
H         2.57441469919796   -2.33414458266165   -3.07012493593780
H         2.38158271236374   -0.23660241968246   -4.19733107736904
H         5.59333552116846    2.73361980925658   -2.85877644588621
H         5.09453935986850    3.15061230054643   -1.25346439353978
H         5.22845576253773    5.31137157599514   -2.67596556378787
H         2.34852626126973    4.45918774001078   -3.96014530963163
H         1.39214041182817    3.32632033014672   -1.64889480472693
H         0.01971682148086    3.62550512350507   -4.21975771825438
H         0.55274922323664    5.07465997510145   -3.29624036761925
H        -1.23300353444569    3.17673627637488   -2.25125457907086
H         1.01109727043841    1.43830400258208   -4.00245709186866
H        -0.00026086711684    1.51430557222386   -2.51251522597341
H         1.45532909353339   -0.99768511215596   -0.64281961033358
H         0.49529075591732   -1.08745076442028   -2.08692047661113
H         0.39120206754672    1.16659074781153   -0.24550360355601
H        -0.58143763919356   -0.14394885734768   -0.13859644200005
H         2.68927747331998    1.75328968232730   -0.47688682973809
