35
 energy: -49.719658297453 gnorm: 0.111367825591 xtb: 6.4.1 (79825abcba525fcdf90b791dcacef51065a7a4e7)
C         3.68948000171923   -1.48781906014516   -2.58100688960802
C         3.08995687189935   -0.16805529016537   -3.04391078122153
N         4.07601831753980    0.95024731066440   -2.98946731047563
C         3.80799495159284    1.68955632784449   -1.95196355614969
C         4.29080403225658    3.10517812033985   -1.94388828491968
C         3.62500206389137    3.73164876665476   -3.17497091163815
N         4.21621872888121    4.12055498046172   -4.26072391991714
N         2.24966918804910    3.85259355844606   -3.06615149424696
C         1.22981376828387    2.99366176165013   -2.43366587151474
C        -0.12351396293032    3.69905332106778   -2.70854514418005
O        -0.26547978756774    5.03591281485261   -2.22781825513258
C         1.24560209483547    1.59670397248476   -3.09285566655139
C         1.91148260836228    0.48520725707584   -2.23196668506915
C         0.83521750103489   -0.45849665679658   -1.61118263732759
N        -0.18423046157051    0.36868096744682   -0.94710057382043
N         2.75928877768215    1.15449343392910   -1.22556834952687
H         3.91899744966260   -1.44821859455381   -1.50954470313164
H         4.64749785032039   -1.57280377190548   -3.10457300484896
H         2.91110278128226   -2.23362193281914   -2.75494549432882
H         2.80933761158898   -0.38123561811359   -4.08435365635443
H         5.34246603178020    3.35438159109630   -2.10689683421646
H         3.86472682122097    3.63319501592872   -1.08853434910725
H         5.19932064997608    3.82635361399404   -4.31688199230278
H         1.92720729751990    4.29473710494770   -3.93011504150016
H         1.50005784431587    3.11408903261616   -1.37582595697413
H        -0.85509916009832    3.09423209600071   -2.16301606349764
H        -0.38764792133943    3.69702112996001   -3.77350920194801
H         0.41807651537713    5.60534526953422   -2.62952053091418
H         1.80130726338150    1.79997608611872   -4.01802722595779
H         0.20469579884155    1.30391839350320   -3.28576898709035
H         1.33080387186614   -1.13411190664885   -0.91448935549559
H         0.44093358534305   -1.10704874539272   -2.40339540480553
H        -0.79420713239803   -0.33630765678924   -0.54050982125956
H         0.34679076187918    0.83175979739400   -0.20779715649736
H         2.26133365448809    1.55335233801449   -0.43234346276572
