35
 energy: -49.726216254046 gnorm: 0.110784170810 xtb: 6.4.1 (79825abcba525fcdf90b791dcacef51065a7a4e7)
C         3.70632799133275   -1.42732093772387   -2.82798921099735
C         3.11158934811143   -0.03695156210756   -2.99723264282490
N         4.04806613469622    1.09253119704688   -2.72674809463968
C         3.58052325218732    1.83169153521807   -1.76244832830312
C         3.97262730671334    3.27250490480432   -1.67604158309356
C         3.59902562086713    3.88577810696406   -3.03089947829466
N         4.27267864457513    4.70858404833127   -3.77172791548692
N         2.33917030566856    3.56411913283150   -3.50766976584199
C         1.24251216903652    2.86850434420998   -2.80669335634445
C        -0.02902964143126    3.72261746745215   -3.04815558391757
O         0.27129128880459    5.08821971766958   -2.75939307160601
C         0.97312848300410    1.36190375455513   -3.01611774175021
C         1.84176798000583    0.38671907593344   -2.17087700487517
C         0.94158610301670   -0.74184707102121   -1.57900915452744
N        -0.02567229441039   -0.12782331718556   -0.65603137080460
N         2.50625122097964    1.21572253491215   -1.14580520840118
H         4.63972909518044   -1.33289499478538   -3.39554872285846
H         3.07248191869109   -2.22834768447365   -3.22262495888075
H         3.97908695464757   -1.61454761352745   -1.78736614057472
H         2.82830502607734    0.02302623742475   -4.05688686162399
H         5.05329094925734    3.35466913722086   -1.53432971069414
H         3.49230706086487    3.93201018034465   -0.95056295717195
H         5.16738336026044    4.89434208385167   -3.30141420154310
H         2.20697718409259    3.92013535709494   -4.45723966873428
H         1.52293890619325    3.11224737084043   -1.77300575287993
H        -0.83626638803812    3.39291942648099   -2.38611659300720
H        -0.34047755401845    3.67349830493635   -4.09911078202841
H         1.22846883684592    5.25590871573331   -2.85190686261134
H         0.97798608997406    1.14684654518230   -4.09305644958990
H        -0.02097562774270    1.28663341778792   -2.55512287787969
H         1.57528884827840   -1.50908543869487   -1.13492643249724
H         0.39439914841465   -1.12700275664050   -2.44844704190871
H         0.29290512857394    0.26907824545983    0.22452192652662
H        -0.59353770945355   -0.93457254132935   -0.39206234469760
H         1.90377959116821    1.72567720279924   -0.50297736807980
