35
 energy: -49.713875501312 gnorm: 0.110233932625 xtb: 6.4.1 (79825abcba525fcdf90b791dcacef51065a7a4e7)
C         3.13161607605107   -1.54082544133411   -2.58665573509624
C         2.65135827516782   -0.14400104217723   -2.95233116280012
N         3.88920848537522    0.64115195265666   -3.23007864820344
C         3.93007638765954    1.53008528790775   -2.27983878872923
C         4.81038803908919    2.70215177165645   -2.57727200824560
C         3.93250402199970    3.90151190012261   -2.95433583596496
N         4.48394362848384    5.02128926935924   -3.30313066050801
N         2.54887652515695    3.95183899813437   -2.98677003663317
C         1.33159300713985    3.32689514266015   -2.43398345792856
C         0.13263981112166    4.14304727518882   -2.98265346650066
O        -1.14093115782155    4.03926787916898   -2.34571329517676
C         1.20307516490663    1.84666081198336   -2.85666664114712
C         1.87110188113823    0.77814985557172   -1.94453923808755
C         0.90289933390974    0.07918361314103   -0.94038455150271
N        -0.06730033323032   -0.75899887263020   -1.66195555993158
N         3.01807295813116    1.39428876397948   -1.24855993768091
H         3.62418883646031   -1.38335602064821   -1.61977769318575
H         3.94402933104192   -1.90144259466165   -3.22625096575033
H         2.31041414211117   -2.26042729703478   -2.59883057474021
H         2.17819890193404   -0.26197202041296   -3.93666723236877
H         5.37741288912886    2.22775799457287   -3.38231891073566
H         5.48899202514199    3.03725453503085   -1.79039414262092
H         5.49208034637980    4.91578417958792   -3.47261990660974
H         2.25609519076530    4.87651864109480   -3.31104193017126
H         1.29811686254149    3.33429849829826   -1.33608344756887
H        -0.01448329570069    3.90657831116694   -4.04145695089479
H         0.25959453244047    5.22312316176218   -2.83692113522189
H        -1.39446098382534    3.13362334812290   -2.08418343060880
H         1.64944869438942    1.90241572425283   -3.85852107080858
H         0.16336377184160    1.55470313385516   -3.05713065936511
H         0.33646233221793    0.82026916309721   -0.37701548473157
H         1.60285639818625   -0.46939066570888   -0.29788389480153
H        -0.84617832121858   -1.06983355228328   -1.08651883644172
H         0.36668420643844   -1.54129352588631   -2.15456857511464
H         2.76283674480556    2.21414757748156   -0.70180633367063
