35
 energy: -49.721172533392 gnorm: 0.113645957477 xtb: 6.4.1 (79825abcba525fcdf90b791dcacef51065a7a4e7)
C         3.67979857370171   -1.40210173933535   -2.63816985826123
C         2.97740995319351   -0.16252470970705   -3.17256992705520
N         4.03313165073203    0.89089920572636   -3.13217518366879
C         3.73075845295076    1.62267909700227   -2.09878415134965
C         4.41105905415747    2.92416640322130   -1.81509986327109
C         3.56059667663214    3.86218141368694   -2.68006445239209
N         3.98929440095978    5.02086006868733   -3.07163415234044
N         2.35079855296993    3.53104655173882   -3.26721691738840
C         1.17982065334252    2.91281765324238   -2.61567202986074
C         0.00331321526978    3.79489977572677   -3.10800647540116
O         0.13197028097755    5.17499478456816   -2.76561623215148
C         0.95398556388121    1.44945633093820   -3.05594883364278
C         1.86292932386276    0.46966741793260   -2.25984170513819
C         0.92943526704929   -0.62244662014767   -1.65142386019175
N        -0.12204641123079   -0.04817506048913   -0.79755009709884
N         2.69385441988331    1.20332749428497   -1.28471953229229
H         4.74001659748029   -1.26140518336949   -2.87987195053425
H         3.44669173946667   -2.35385092980077   -3.12702234239217
H         3.58700708708306   -1.53019468297293   -1.55773957529790
H         2.61732401596287   -0.38596402127622   -4.18604286210788
H         5.41947316312860    2.92271248110931   -2.23672291098312
H         4.46256725294222    3.31419744855640   -0.79667133731715
H         4.95093549698776    5.24781081706382   -2.78890226561902
H         2.18150968503564    4.15807235172761   -4.05720774823843
H         1.09927125006894    3.15968866257122   -1.54837340090548
H        -0.90550972243547    3.52927718886078   -2.55835831285938
H        -0.19869562124092    3.58156929235445   -4.16517337829375
H         1.05171076131361    5.49178448874205   -2.84678883244622
H         1.09599746899793    1.43456773723218   -4.14483869677879
H        -0.09605280643746    1.16255326141301   -2.90921471855121
H         1.60659704622578   -1.31169019819447   -1.14759992056161
H         0.45029260875023   -1.17999861183840   -2.46581859105170
H        -0.21208407378981   -0.46220008021479    0.12704334470379
H        -1.02118616399571   -0.07918859611431   -1.28085222406380
H         2.46182958660467    1.77373474604966   -0.47413117402560
