35
 energy: -49.725291858639 gnorm: 0.119604942018 xtb: 6.4.1 (79825abcba525fcdf90b791dcacef51065a7a4e7)
C         3.72631073602307   -1.34824293696244   -2.53359160607141
C         3.05624784218242   -0.10520603223773   -3.10047732805634
N         3.97952945451833    1.06495111830785   -3.03593805986970
C         3.64574035585288    1.69812804113195   -1.94850978936083
C         4.13942244853089    3.08700152378128   -1.69461341141642
C         3.64940265397650    3.83850120928826   -2.93817724492293
N         4.33007964411396    4.74560877280828   -3.56545669005143
N         2.31514493918511    3.72766389519404   -3.29241061787162
C         1.28996627966245    2.90873770490609   -2.61692886882553
C        -0.00983367108611    3.70355597346342   -2.90574689498338
O         0.10521432945187    5.10880892732293   -2.68108258621614
C         1.12522965924821    1.46585070010289   -3.14343668668366
C         1.82076300679474    0.38947281196975   -2.26162281189712
C         0.82894266972109   -0.65980281190738   -1.67034483283133
N        -0.15240379256692    0.09340925778142   -0.87402035079615
N         2.64743343340356    1.05731095098673   -1.23684713917202
H         4.67043475377015   -1.53630620817567   -3.05851038807976
H         3.23584073234009   -2.26025490501287   -2.88970314225699
H         3.90222054966134   -1.31385079297859   -1.45645624633251
H         2.78710586456432   -0.33154608791055   -4.14117286498847
H         5.23011293434262    3.14680240337960   -1.73315246262959
H         3.81365332097853    3.45774082010522   -0.72075467479909
H         5.31627835411383    4.94494803378229   -3.35599662934654
H         2.07354885536466    4.16494874323046   -4.18477763014269
H         1.49521615943710    2.95617465986229   -1.53888336481983
H        -0.73799772359080    3.38521106911676   -2.15271221189636
H        -0.49771439616879    3.59669419315843   -3.88271786921927
H         0.87069811958055    5.44005639546049   -3.18820874664603
H         1.44904034957445    1.41621249784670   -4.19165083151974
H         0.04726880244283    1.28127249507415   -3.04167148038543
H         1.43329633643525   -1.31672657284785   -1.04532388873695
H         0.33897618044910   -1.22936260400880   -2.46985417686441
H        -0.21116855724164   -0.33254780653546    0.04766496529283
H        -1.08596880699337   -0.15998848345726   -1.20149712184925
H         2.15274144992645    1.46017910163059   -0.44360658763378
