35
 energy: -49.722715538371 gnorm: 0.119338147412 xtb: 6.4.1 (79825abcba525fcdf90b791dcacef51065a7a4e7)
C         3.61085740511693   -1.44998439090352   -2.80519230826620
C         3.00992965373565   -0.08441166822258   -3.10449380471089
N         4.10952463154232    0.90856466754869   -2.92907753791653
C         3.76214663927737    1.62530271852482   -1.89929916236322
C         4.30285521270344    2.99356969320485   -1.62979100864602
C         3.59429386828168    3.86376292430786   -2.67479185206604
N         4.13622892283150    4.92446535235875   -3.18553795182179
N         2.43497993634139    3.45706399750611   -3.31400781564803
C         1.20858490327663    2.92722452809333   -2.68700514132456
C         0.01051464143134    3.77076037668278   -3.19465341926831
O         0.18356429966294    5.08370304280597   -2.66109804495203
C         0.92489454838837    1.46611508877819   -3.10046680044004
C         1.80963981453098    0.49421360167839   -2.26824989334941
C         0.98397624638532   -0.60911723700815   -1.53665078122993
N        -0.32765768724386   -0.11874273554714   -1.08537344365228
N         2.56823788505194    1.29240377808260   -1.28489933030432
H         4.36481271080546   -1.80981900996257   -3.51536701444985
H         2.86549487238873   -2.24931064923287   -2.73696990316744
H         4.20918599833294   -1.46624976904684   -1.89190922523400
H         2.70033002762440    0.05345346699467   -4.14941279099727
H         5.36103372766860    3.15618121776498   -1.84997924857566
H         4.11084672300186    3.44987765498982   -0.65670839082364
H         5.06791892442010    5.02469832312417   -2.76351346847335
H         2.31425085672168    3.97119580615035   -4.18979236370487
H         1.19008994495689    3.13771899789883   -1.60908589318067
H        -0.92699049103975    3.29983056876148   -2.88170479538089
H         0.10213680664992    3.77764151115565   -4.28803229535348
H         1.03672641370617    5.52280352093347   -2.84046481361080
H         1.04703930527357    1.37834224734132   -4.18833020500413
H        -0.13440835926549    1.28661756013241   -2.87225011439574
H         1.59398217544421   -0.92178235753004   -0.68955182456304
H         0.75556347194453   -1.41072266398850   -2.25004901890318
H        -0.07178730407036    0.41569138784976   -0.25874955435164
H        -0.91243934733927   -0.94491333664894   -0.94947777592188
H         2.15502957642327    1.92899039342885   -0.60646743038794
