35
 energy: -49.716206983556 gnorm: 0.115399961896 xtb: 6.4.1 (79825abcba525fcdf90b791dcacef51065a7a4e7)
C         3.58151328315936   -1.42620761371939   -2.94695353194110
C         3.03393775315942   -0.02696862497256   -3.18731934412237
N         4.14513880109601    0.93336477780228   -2.92488080029205
C         3.73643674778015    1.59308353998116   -1.87962379212100
C         4.16607448917517    2.98214793782104   -1.52881548796094
C         3.60398775282235    3.81997170063195   -2.68355876080660
N         4.18940935531454    4.73348382741161   -3.39237605030736
N         2.34956357471106    3.57226487089323   -3.21560307080748
C         1.10525704029999    2.98047724814273   -2.68702420225456
C        -0.05014615639637    3.83962313878612   -3.26282243977205
O         0.06766229064726    5.17817003471725   -2.78026743673260
C         0.93137287081513    1.48244916064392   -3.02161001315172
C         1.85929092685980    0.48284031520314   -2.27347774159627
C         1.01318782398088   -0.66064142880514   -1.63249756357423
N         0.20788508354700   -0.05495459196994   -0.56052138360135
N         2.61786407023851    1.14995031173574   -1.19686826418820
H         3.91125162815917   -1.51196472722101   -1.90474624850493
H         4.48316942608217   -1.54056149134873   -3.55775748538727
H         2.93500984345060   -2.24042533182835   -3.28076556150237
H         2.85350322009547    0.13872373210064   -4.25816192720047
H         5.24111177138690    3.00747563165006   -1.33305931791644
H         3.58461665880660    3.10925070950194   -0.61354192978623
H         5.17242416777333    4.94662679365652   -3.18154551422597
H         2.26202311977475    4.38779886373301   -3.82646032280919
H         1.08223245879297    3.08380604854584   -1.59370224064363
H        -0.97349325523976    3.35789813113676   -2.92518543916285
H        -0.09298996877513    3.89018780544174   -4.35805161458629
H         0.25667015315863    5.83717181201160   -3.47514868142667
H         1.08024558332190    1.48539909435277   -4.10968097474277
H        -0.14694220050210    1.29343348528758   -2.93253396523659
H         1.67157896253775   -1.43906533472281   -1.24776299461675
H         0.34779622484200   -1.09056559867759   -2.39151003500434
H         0.72401947498805    0.19247245294357    0.28018170576597
H        -0.62327550892373   -0.63393204936801   -0.43032053952295
H         2.27488422865413    1.80598880369816   -0.49813240361862
