35
 energy: -49.712069066374 gnorm: 0.109269260696 xtb: 6.4.1 (79825abcba525fcdf90b791dcacef51065a7a4e7)
C         3.77488025379709   -1.34428862852378   -2.45545131240849
C         3.11667635034670   -0.18579619031631   -3.19039849270947
N         4.13255454987693    0.90328678307363   -3.10224077502974
C         3.85897737103496    1.50977979896128   -1.98324560851763
C         4.37807942232464    2.89548119396053   -1.76525559108213
C         3.58208611042739    3.84746603751811   -2.66605617559926
N         4.02563497758589    4.43224860230104   -3.73420343307460
N         2.20749534473993    3.97536607251728   -2.55582157741926
C         1.13989234366633    2.96243465306395   -2.44581807331428
C        -0.10219796596154    3.64960704004796   -3.07002767601732
O        -0.20349416428088    5.01489301013870   -2.66483727051400
C         1.39058333549135    1.65139426301733   -3.22337751489914
C         1.93579105767322    0.46396802083997   -2.37915053669783
C         0.80705743517254   -0.46216861107901   -1.82912514257875
N        -0.14522127685252    0.36012922763425   -1.06656792964910
N         2.73333105431001    1.08276178037608   -1.30184778855942
H         4.82413238025472   -1.10161403182393   -2.24940107297856
H         3.64184297000701   -2.31887455364564   -2.93672611821501
H         3.28472975311384   -1.40287441288277   -1.48145548812405
H         2.86027767936061   -0.46156896452467   -4.22234981106131
H         5.43111006233943    3.10195351754829   -1.97301215582755
H         4.27524405730633    3.09598920352410   -0.69698810264182
H         5.00444072496266    4.31359737924522   -4.02413231200559
H         1.95904105032129    4.50262302618763   -3.39616448074089
H         0.96468604530535    2.83302119510526   -1.36919613104085
H        -1.03524940136985    3.17002985551757   -2.75690095934503
H         0.04007512697945    3.62992778548563   -4.15781921387289
H        -0.33017830344166    4.99390756349142   -1.69717100482686
H         2.09264671243130    1.88616778045304   -4.03458564594070
H         0.44560994139382    1.25754383507190   -3.62128706445805
H         1.28510908019622   -1.27232166585006   -1.27906876424654
H         0.42522848504495   -0.82857227046128   -2.79018483504810
H         0.12206812473883    0.26468379408752   -0.08991902356275
H        -1.11122005425136    0.03673514167742   -1.13907802288269
H         2.19083313860058    1.79975885728431   -0.82449603027152
