35
 energy: -49.718633414860 gnorm: 0.109319796958 xtb: 6.4.1 (79825abcba525fcdf90b791dcacef51065a7a4e7)
C         3.36714357086761   -1.53552946608152   -2.46402036479939
C         2.90297791032390   -0.16189296826871   -2.92571015363201
N         4.01064531177562    0.80938542017724   -3.16144990110384
C         3.94307615612799    1.67964613753651   -2.19557769605229
C         4.56309931279923    3.04020658875949   -2.15555908882385
C         3.86560946963195    3.90465685339267   -3.21270423255770
N         4.37528360931541    4.76870465303135   -4.03325190665990
N         2.54734841673115    3.57435061720818   -3.47934153040335
C         1.38512309583848    3.10587023303644   -2.69981255150555
C         0.05718939564670    3.83647887802088   -3.02758525815981
O        -1.02562893607191    3.16275584080983   -2.38567584465646
C         1.09168488922818    1.62270332512287   -3.01664299317956
C         1.90016933404888    0.69324623229007   -2.06668817893126
C         0.92912529485109   -0.11386460456463   -1.15020459510071
N         0.18129717875813    0.80339422074273   -0.27619581914926
N         2.92208531713119    1.42931608460385   -1.29633380549351
H         4.29682763250509   -1.49275015461443   -1.88424872269928
H         3.61506764636550   -1.99224606825122   -3.42791127432797
H         2.65285274763755   -2.14835324373528   -1.91032071526824
H         2.48009890300789   -0.46392817745387   -3.89352341385482
H         5.59578238862431    2.87800659062407   -2.47481443901103
H         4.56833865654274    3.38092730929634   -1.11832433446669
H         5.37778321349044    4.86486203630928   -3.82844499438364
H         2.20110753777042    3.99403611105487   -4.34530166136467
H         1.56670071726211    3.23303886841024   -1.62397910485759
H         0.03051224101436    3.84099802069420   -4.12206938692986
H         0.02984358006386    4.85066775391494   -2.60974262670102
H        -1.87403051831204    3.62670008853207   -2.51923388992888
H         1.39403733910573    1.38712761434139   -4.04579667875674
H         0.01849566366719    1.39915808953375   -3.08532555291721
H         1.46434664521534   -0.79916551381044   -0.49343664788325
H         0.34813143770672   -0.75184450675488   -1.82778005082756
H        -0.34792800295129    1.40716800864831   -0.90051501733627
H        -0.47561556939103    0.20744725761786    0.23007283167071
H         2.55420000432032    2.02188383160805   -0.55486408416241
