35
 energy: -49.726767146184 gnorm: 0.115640836928 xtb: 6.4.1 (79825abcba525fcdf90b791dcacef51065a7a4e7)
C         3.51795873984033   -1.38100582539398   -2.86504049379025
C         2.97422812150026    0.02475675243044   -3.07402138720752
N         4.08089189336885    0.98062080396104   -2.77821537213825
C         3.72293712020214    1.66481989183721   -1.73008923914974
C         4.24623683023993    3.05915012013918   -1.59168577241221
C         3.65630420950231    3.92487581271857   -2.71142712548271
N         4.15724857111068    4.97708818645759   -3.27847973692919
N         2.53296742233708    3.43187013874612   -3.35413212297275
C         1.28589051249042    2.98471308976426   -2.70393466345538
C         0.12358000284441    3.78116294130291   -3.35149450631592
O         0.25047051224777    5.18251271311574   -3.10949538420209
C         0.91241730320080    1.49886952575192   -2.90156612833292
C         1.79283418532519    0.47023481331738   -2.13558414765653
C         0.90809504385072   -0.72225482520549   -1.65652087562960
N        -0.17559460054500   -0.23105757154800   -0.79116316381797
N         2.59450911844666    1.16248967558150   -1.10715943024643
H         4.55354840111593   -1.43072430135211   -3.22191554737402
H         2.81072666255220   -2.04133896627814   -3.37780263254962
H         3.46336556196121   -1.58664617328323   -1.79402261509798
H         2.70938491098918    0.23387782454243   -4.11941167881061
H         5.33444814959749    3.04343663506082   -1.69276167080591
H         3.92012433276627    3.52961424829000   -0.66201479091382
H         5.15784614307318    5.04835162847096   -3.05504387095350
H         2.21591081698500    3.96920041906791   -4.16447580673428
H         1.39200328125603    3.26629764427039   -1.64752087087296
H        -0.85629749892938    3.45558614033718   -2.98753376586836
H         0.16457626892998    3.53658984180161   -4.42033623390302
H         1.17892744341449    5.31059595902214   -3.38231340327510
H         0.82625213370991    1.26545269337301   -3.97122137142820
H        -0.06033127725224    1.36396925327003   -2.40964439382052
H         1.46700005278860   -1.48538158668315   -1.11549769948552
H         0.41529480876279   -1.27234687729927   -2.46783299353203
H         0.01608254638381   -0.27376201705200    0.20675102848555
H        -0.93191330944535   -0.90845139218783   -0.90122999403448
H         2.07516072328753    1.75605617482927   -0.46356831599157
