35
 energy: -49.721159431704 gnorm: 0.111557507018 xtb: 6.4.1 (79825abcba525fcdf90b791dcacef51065a7a4e7)
C         3.34448059871325   -1.50409591360275   -2.34597757173726
C         2.94508312945294   -0.21056360801010   -3.04077270841222
N         4.01096002239412    0.80301645284465   -3.29066050937446
C         3.90675317069413    1.62442158136169   -2.28603970035730
C         4.59802301643170    2.95050249695067   -2.25757306451128
C         3.73775281904428    3.78943545314512   -3.21017417270580
N         4.18929878035040    4.37457272446096   -4.27477053731752
N         2.43367373661432    4.05109606802768   -2.82427095098457
C         1.31612748654630    3.16243677646384   -2.45106592201069
C         0.02947128705528    3.86254224906144   -2.95998633263813
O        -1.14350573875456    3.13247095277937   -2.60003250670227
C         1.37648491863068    1.73007043048579   -3.02635293561906
C         1.96396387727958    0.60803354945714   -2.12310690412080
C         0.99073908073858   -0.20917508317076   -1.21795493352145
N         0.24279674382511    0.76326718602136   -0.40589565973494
N         2.93961566163558    1.37942430070656   -1.32773475354563
H         3.65763967449356   -1.22313524157353   -1.33342131218394
H         4.23188620464140   -1.86618899537664   -2.87563970193521
H         2.49205802633972   -2.15625888059306   -2.14496292489762
H         2.51592698120801   -0.35510659530937   -4.04159574254148
H         5.59340324289397    2.87403453181742   -2.70258766645944
H         4.69063422185209    3.43894577105769   -1.28555437744169
H         5.16802561839284    4.08834558156916   -4.40269772966962
H         2.05472100921295    4.78474785695159   -3.42764105620491
H         1.12495023598470    3.13313470522899   -1.36979235612963
H         0.18335826738519    3.92597450703375   -4.04207816924284
H         0.00926823625002    4.83258910819416   -2.44761902172444
H        -1.85842808274376    3.74251103191311   -2.86385897607086
H         1.95810610080606    1.64675325124829   -3.95417040377520
H         0.33975024154073    1.47224411622672   -3.28156200437133
H         1.55496648656333   -0.86078760447857   -0.55125266661216
H         0.43361354707076   -0.86220776181711   -1.90121196037055
H        -0.31734922043521    1.40689688778577   -0.95940613088007
H        -0.36715545395947    0.28776942498790    0.26107906242382
H         2.66254837545089    2.10729917748451   -0.67223085165049
