35
 energy: -49.722969130109 gnorm: 0.108614888115 xtb: 6.4.1 (79825abcba525fcdf90b791dcacef51065a7a4e7)
C         3.57722587525536   -1.49733546297558   -2.62439993963780
C         2.90352486079052   -0.24241046010992   -3.15991338088379
N         3.92880853504986    0.83841388079785   -3.24049968809135
C         3.83331391965335    1.53855228144293   -2.14710340744337
C         4.45546333276091    2.88407696314520   -1.94798440693306
C         3.58374129880348    3.96805443264501   -2.59328722779164
N         4.00884022180235    5.16505162682930   -2.85045144748080
N         2.35225569211037    3.69882875719216   -3.16684679639476
C         1.13888019711260    2.96657032082056   -2.75523477095342
C        -0.10043745598030    3.61934314034802   -3.42052511176617
O        -0.19774564857706    5.03095371210221   -3.22991381263363
C         1.02195256839883    1.46353472565917   -3.09210786096065
C         1.85291158466212    0.46991672611140   -2.23060795068631
C         0.99082473947189   -0.54961135411689   -1.42335002657264
N         0.22591714386981    0.20689407325346   -0.41979738847519
N         2.82174733739405    1.09966790711452   -1.31173489021129
H         4.26509497589010   -1.68630455800930   -3.45710905598081
H         2.84263422144623   -2.30901673146120   -2.59811864164885
H         4.14481968465309   -1.31626895443830   -1.70930439423689
H         2.56181947762060   -0.49738516835223   -4.17230646637357
H         5.34478572559210    2.93329181470676   -2.58150688587034
H         4.60452925589403    3.05222608453321   -0.87958409650289
H         4.98812015485319    5.43440456197352   -2.69342479454846
H         2.10177020024359    4.53345749714241   -3.70215744878775
H         1.12575476772931    3.08464697782735   -1.66324323268203
H        -1.02684419871579    3.15420448007809   -3.06832606928341
H         0.09850263773039    3.56738811372462   -4.49832047807488
H         0.26036589234352    5.38100043883697   -2.44221566953369
H         1.31914029229313    1.34248197529088   -4.14239158782773
H        -0.02871388181957    1.16564540478155   -2.97469047238692
H         1.62422303757802   -1.35143198476846   -1.04475573309241
H         0.29692034946920   -1.03364375763021   -2.12184129215685
H         0.64606475445315    0.21322666401026    0.50639504488909
H        -0.65394916507138   -0.30533311132039   -0.33946259756926
H         2.26213947075814    1.67112110706521   -0.68202561513895
