35
 energy: -49.721424328966 gnorm: 0.109264657775 xtb: 6.4.1 (79825abcba525fcdf90b791dcacef51065a7a4e7)
C         3.56367859819449   -1.44182498189681   -2.67126712697468
C         2.76973171756784   -0.21451023108167   -3.09415159341005
N         3.82135340194012    0.82450416987520   -3.29520604932425
C         3.78658799198264    1.61763490666182   -2.26342923704841
C         4.48970564290585    2.93743505533801   -2.23329575924799
C         3.54582272221773    3.94757012304824   -2.89664661866550
N         3.78272798674424    5.20734842001952   -3.08764225960757
N         2.46468591774245    3.32906901102702   -3.50212943001131
C         1.24494813030805    2.93977091951767   -2.76823999988719
C         0.06982029838086    3.84171835103299   -3.22671270664118
O         0.30656985781621    5.18352205591913   -2.80014686824872
C         0.84510984912109    1.44808885753452   -2.80409369332677
C         1.80600013651239    0.47661748536031   -2.06053140564025
C         0.94977194682951   -0.56715271494977   -1.27841021568612
N        -0.14745944441800    0.02819249009997   -0.49985430324180
N         2.83822836408469    1.23871848416365   -1.33028224636874
H         3.92956444493543   -1.18578993293532   -1.66984250099080
H         4.42156694913654   -1.61258118799792   -3.33006297475333
H         3.08926537794526   -2.41547236174346   -2.53237677805683
H         2.31997271518701   -0.41865660017015   -4.07535264258607
H         5.44868012743476    2.98388158810605   -2.75567280838271
H         4.59339797139206    3.28684123010634   -1.20415183349849
H         4.55443968753288    5.54026239263775   -2.49618059422280
H         2.31942124372165    3.78956030793925   -4.40365676842689
H         1.48513226067263    3.14081559850547   -1.71540928389341
H        -0.89582072373742    3.46942851368035   -2.86954988786234
H        -0.03625896281643    3.77069331680270   -4.31649340046597
H         1.26044179955675    5.38483432554634   -2.84983537976115
H         0.66927779905229    0.97665754133333   -3.78026263266392
H        -0.08012143981858    1.46142081425954   -2.21232161804479
H         1.59475454703414   -1.24192493236573   -0.71616183416619
H         0.54815184647581   -1.21372517813087   -2.06855326833372
H        -0.75186072215067   -0.72933941402438   -0.19124282388024
H         0.39004488197550    0.39810372635712    0.28579820422689
H         2.58454938548119    1.88927910352789   -0.58955874121369
