35
 energy: -49.712994612113 gnorm: 0.127962731116 xtb: 6.4.1 (79825abcba525fcdf90b791dcacef51065a7a4e7)
C         3.61002853059626   -1.32410438288006   -2.82071834593424
C         3.05027816761788    0.03463769339951   -3.21566638791681
N         3.98404574975527    1.18746313707292   -3.05769927646998
C         3.66367537437046    1.75678128553913   -1.93161397327265
C         4.38412192656676    3.04562677980490   -1.69289023947885
C         3.64523235907366    3.80468692979959   -2.80157959992733
N         4.28454248206940    4.74478005367502   -3.42379524099867
N         2.28427898300364    3.73826144670481   -3.04937668823985
C         1.12078796848318    2.99111501570610   -2.53365599933338
C        -0.07876356773174    3.73527110411769   -3.17548126461231
O         0.01190638303050    5.12739638209687   -2.87181675606552
C         1.00961020782936    1.51154578736930   -2.96352333861262
C         1.85774295178959    0.41239599571366   -2.26174539890800
C         1.03567827801096   -0.72464079722866   -1.57935726446922
N        -0.17232517141337   -0.14670470777606   -0.97007939614281
N         2.63517790692320    1.14181894781762   -1.24042566110754
H         3.72746018439811   -1.17855815551961   -1.74030000560324
H         4.56598318620620   -1.58099087778570   -3.28901537388120
H         2.89117861766725   -2.13277133157217   -2.96789251803588
H         2.81406459554327   -0.00569041704633   -4.28771639256732
H         5.44871041935392    3.00116329437362   -1.93649131699350
H         4.27768885828623    3.49054972015970   -0.70158323401071
H         5.29871278340783    4.83596933932056   -3.28472447617003
H         2.17587839034952    4.09533522741330   -4.00156008805477
H         1.16189282030381    3.02394139010555   -1.43648112453964
H        -0.95825358688183    3.24749160463672   -2.74281965914719
H        -0.03553202543435    3.55936274248887   -4.25765806038758
H         0.85669439369214    5.27483195632844   -2.40548722650776
H         1.02134337158630    1.32327363023718   -4.04541341243468
H        -0.00863988874235    1.19921301236714   -2.69512091860755
H         1.72227966761481   -1.12918369868438   -0.83614333936295
H         0.73375570126362   -1.47464558967846   -2.32098808706750
H         0.04373069151211    0.33857315066457   -0.10277218258097
H        -0.83946800865297   -0.81971229388108   -0.58932185095182
H         2.14640140384058    1.52371981149087   -0.43326846193237
