35
 energy: -49.717903566158 gnorm: 0.119052732206 xtb: 6.4.1 (79825abcba525fcdf90b791dcacef51065a7a4e7)
C         3.66942238272236   -1.42703505974678   -2.47987348652131
C         3.09140983136809   -0.17163612226629   -3.11655194188679
N         4.05634603178286    0.96590184285976   -3.08848913767260
C         3.66222912619297    1.66919665783900   -2.06629703777434
C         4.17663885957008    3.01364008922677   -1.66008351941081
C         3.57150659883600    3.99430159268118   -2.67173571732666
N         4.30125450591128    4.92720665930203   -3.19785447012179
N         2.32237884539215    3.68878529191244   -3.18588501438648
C         1.22984991478990    2.87706439021158   -2.61544947042386
C        -0.00350658291844    3.67324283382955   -3.11501278135964
O         0.11846531529677    5.06639150198670   -2.82742694775361
C         1.07288970852565    1.43793447605068   -3.15446723441786
C         1.83007563171984    0.35289498120405   -2.33635324553592
C         0.75807021226125   -0.65571234572771   -1.81884747504884
N        -0.05124342658237    0.12216815209212   -0.86783992736323
N         2.61576450949080    1.11851739898268   -1.34838955252012
H         4.60918894826690   -1.69794860022945   -2.97557736962131
H         3.01472078803453   -2.28740214485407   -2.65387458918083
H         4.00428953048064   -1.23576658713863   -1.45829234256657
H         2.84123196437576   -0.19612991183466   -4.18590946853873
H         5.26162994457836    3.14068157676022   -1.62372496858758
H         3.81954501615044    3.34943201959155   -0.68453148585509
H         5.24797721721215    4.93129125664893   -2.79798325065773
H         2.15362769321278    4.04049019957173   -4.13125917651198
H         1.30119572873800    2.99162049747492   -1.52533637054944
H        -0.82639947979621    3.39766794281647   -2.44752992346244
H        -0.33152850558074    3.46142040424040   -4.14041621927985
H         0.67055687653503    5.51405299506360   -3.49650194897787
H         1.31661740893432    1.36885330866547   -4.22306202070597
H        -0.02137960451350    1.35052285893439   -3.11760580679271
H         1.30926072008715   -1.46416372950878   -1.33922392109057
H         0.11568905118613   -1.01606351490464   -2.63197365815212
H         0.54259863756596    0.25269683562449   -0.05254218575253
H        -0.86426023170566   -0.37860998691176   -0.50559689093788
H         2.27069405427741    1.59161597325101   -0.51570858009551
