35
 energy: -49.714730906801 gnorm: 0.112059583430 xtb: 6.4.1 (79825abcba525fcdf90b791dcacef51065a7a4e7)
C         3.62045272277541   -1.36347860454710   -2.50580857613492
C         2.95072927309471   -0.08517990271055   -2.98841336558873
N         4.02843849184826    0.93155519970811   -3.16355497577015
C         3.87704112434819    1.73477223244546   -2.15026840426655
C         4.34449500481581    3.15401826790086   -2.08406770144247
C         3.60133060943077    3.77852366695053   -3.27108997962491
N         4.18335466712256    4.28159428246493   -4.31407261409128
N         2.25316802621759    3.54436479400439   -3.48471844407859
C         1.16826980261698    3.04094230728446   -2.62015577265139
C        -0.15227357721414    3.84290838035519   -2.75299931231355
O        -0.17955337351108    5.18525919778871   -2.26741096692331
C         0.98903112881495    1.51595321251469   -2.78913296453202
C         1.94019747536066    0.58370192466770   -1.98530349785032
C         1.14709583305528   -0.25469229512993   -0.93535994096837
N        -0.30693644613616   -0.38838738986574   -1.11540914481203
N         2.92267997778553    1.37306284549161   -1.21641180866737
H         4.00756828853449   -1.23697117988404   -1.48776383559829
H         4.40972479195324   -1.56951911941178   -3.23638300189551
H         2.87518695075328   -2.16008559477324   -2.55422244323516
H         2.60299492944144   -0.31502914827112   -4.00476201146366
H         5.42891276102496    3.01758443896594   -2.09361133738230
H         4.20742194190595    3.64176698061763   -1.11696575651694
H         5.20743256421101    4.26369620171851   -4.22956409870534
H         2.07243606910056    3.70970941100953   -4.47764478216445
H         1.52772771766754    3.36543004760867   -1.63422595564070
H        -0.85711166226224    3.25836333585569   -2.15288435932770
H        -0.41446388755496    3.92978852070815   -3.81489733268727
H         0.41138505567723    5.65429597050773   -2.88681676236983
H         1.11873276149498    1.35475633018296   -3.86767979450387
H        -0.02536057137712    1.28144571692518   -2.43921784367721
H         1.40604566805296    0.13965277275109    0.04692327254658
H         1.58967624693148   -1.25858383507869   -0.93760977390607
H        -0.48589187665872   -0.97577613492832   -1.92617788690783
H        -0.65442911995182   -0.79273343484023   -0.24434760718979
H         2.58971177710053    2.17183680972103   -0.68036532916256
