35
 energy: -49.720920574900 gnorm: 0.112958852289 xtb: 6.4.1 (79825abcba525fcdf90b791dcacef51065a7a4e7)
C         3.46098529223230   -1.59152930501003   -2.85076655470997
C         3.05844328583548   -0.14448060313970   -3.09468130741529
N         4.11374699789393    0.90650253645203   -3.00721416887535
C         3.81954926080785    1.64748385488883   -1.97802867164246
C         4.31549670163027    3.02150778393602   -1.65670436677878
C         3.65225113043716    3.88368628827177   -2.73747988960738
N         4.18206207591454    5.03214290777064   -3.02030947161371
N         2.42208073537833    3.60066043786105   -3.30720527083767
C         1.21582578507526    2.99665692681503   -2.70884440275436
C        -0.08877889429935    3.67633203013477   -3.19943611572336
O        -0.10797541091001    5.03632767184293   -2.76528255781494
C         1.02240520614335    1.51186789996090   -3.08866220852251
C         1.86220183808556    0.47824344716397   -2.28472578110566
C         1.01690121819523   -0.62423416656934   -1.57458035483433
N        -0.03302791764728    0.08264355282144   -0.82459723617465
N         2.70910094467265    1.17881739041440   -1.29907118168786
H         3.88261545059287   -1.86209578419371   -3.82611237660852
H         2.59185646161583   -2.23942339855479   -2.69587823100391
H         4.22499718204033   -1.61672669441554   -2.07102391427367
H         2.74382543210693   -0.13848538350427   -4.14715177472492
H         5.39423547997978    3.18660559652402   -1.59561026524599
H         3.85402692125397    3.30362121796729   -0.70832065821704
H         5.19474807061508    5.07984682005958   -2.85181917766033
H         2.18377340429280    4.35780059883854   -3.95207269502506
H         1.18184900465611    3.17900191279841   -1.62618297512397
H        -0.94432339347776    3.20137597306485   -2.70842903538521
H        -0.04207212237019    3.61169079510030   -4.29376665148009
H         0.66396635128888    5.50246943395594   -3.13902716982410
H         1.20248481276824    1.45828100444305   -4.17068345804083
H        -0.01869755379019    1.27098283746783   -2.83468523289941
H         1.68465951234457   -1.12427798243716   -0.87351088268053
H         0.64490199392542   -1.35509817221009   -2.30337050782039
H         0.15111502472430   -0.08123270386591    0.16213093798268
H        -0.90990001484937   -0.42124231087857   -0.96668681493377
H         2.30272612631911    1.72262489789131   -0.54052890957851
