35
 energy: -49.718615598443 gnorm: 0.105173623226 xtb: 6.4.1 (79825abcba525fcdf90b791dcacef51065a7a4e7)
C         3.77165564119234   -1.39800087205777   -2.78932357601145
C         2.98636691658391   -0.15707553936019   -3.18795923900227
N         3.88064865230814    1.03393218152067   -3.10053609214453
C         3.68315488169875    1.62688311133148   -1.95850551447267
C         4.30991404721682    2.96044094155249   -1.70169545108417
C         3.63546409094269    3.89884049011462   -2.70958718202553
N         4.27220110260512    4.89740282154767   -3.23597492925815
N         2.36297364485899    3.65938419148549   -3.20095118408889
C         1.15981529420764    2.96640397494650   -2.70085582056662
C        -0.09679915786251    3.73437594738239   -3.18641838683661
O        -0.01296729963628    5.05750057923465   -2.65655105003476
C         1.11843997299047    1.47987619258611   -3.11894047721417
C         1.85428474532676    0.41428382960861   -2.25696768442395
C         0.84395630283753   -0.56776883373404   -1.58681428586098
N        -0.13630019135187    0.05418988428006   -0.68306291765306
N         2.70205650325872    1.00840002529272   -1.20441556995445
H         4.54528996158266   -1.66743215833459   -3.51814070160904
H         3.14667998303102   -2.29203100340208   -2.69310698265825
H         4.33356548594388   -1.26018186176227   -1.86325073066743
H         2.58281674036293   -0.25025563861521   -4.20539678289072
H         5.38114878603053    3.10863390242803   -1.86032118042103
H         4.03307553441422    3.30888710553504   -0.70474022711335
H         5.24861640973185    5.07273493601316   -2.96751756264753
H         2.27544596224927    4.19133757131186   -4.07001395685705
H         1.05971863107762    3.10318370057022   -1.61557620130051
H        -0.97986327051973    3.31510567389394   -2.69342973776030
H        -0.10005601526360    3.91151608322733   -4.26925267465036
H         0.88136749215570    5.30546225667182   -2.95911930675340
H         1.70550337328186    1.43627294324927   -4.04604648363872
H         0.04550084590637    1.28493716094975   -3.25018559131844
H         1.51230612019118   -1.23384602252367   -1.04175184109167
H         0.33913195929446   -1.17142164470596   -2.35129867101542
H        -0.31475963988918   -0.48429643157558    0.16108236078075
H        -1.00321083475179   -0.02331680864839   -1.21734162516508
H         2.21562627344784    1.50363857897178   -0.45984999532030
