35
 energy: -49.722581660453 gnorm: 0.110143383951 xtb: 6.4.1 (79825abcba525fcdf90b791dcacef51065a7a4e7)
C         3.51028711408729   -1.57796299719978   -2.66384666580841
C         3.09606258319352   -0.17024346119894   -3.06662224884453
N         4.18413949560493    0.83908128287020   -2.91419462646134
C         3.85226818248822    1.68195761077181   -1.97918161597509
C         4.28891509073028    3.09864836838921   -1.78048160480635
C         3.46332482275925    3.91082141595116   -2.78551785017404
N         3.97605826675852    4.99720852851554   -3.27184313279141
N         2.37749042176809    3.35496068382440   -3.44125587768312
C         1.13227255092404    2.84213418314002   -2.83764306334294
C        -0.01876294065598    3.77918051346157   -3.28674584664881
O         0.01544133444529    4.99773580903545   -2.54351034130412
C         0.89772918322292    1.34059521682899   -3.11448541899821
C         1.90774136839776    0.49919914140240   -2.28269234598419
C         1.09467217440747   -0.53293319044823   -1.44131377306002
N        -0.07839345855004    0.13503593550723   -0.85630415976385
N         2.72463693924853    1.24677360183964   -1.30628516278127
H         4.37626201876855   -1.77162663434902   -3.30794257713854
H         2.67933375805258   -2.27813529717768   -2.79955718554547
H         3.81461532248828   -1.59882669968988   -1.61537315202159
H         3.00927172620583   -0.13669530716659   -4.16117982104435
H         5.33996271073898    3.32332631149670   -1.97919208270343
H         4.01810644340557    3.47331022348206   -0.79140871861290
H         4.85011607282927    5.28433320848009   -2.81382573450863
H         2.26635446751771    3.89075264773986   -4.30524741566979
H         1.12954651447853    3.08238923597545   -1.76580820043556
H        -0.97862140353467    3.29393405897177   -3.08220928212607
H        -0.09365362537722    3.88313917035075   -4.37647210099889
H         0.68362491775604    5.62100772795899   -2.88691982564655
H         1.17482455822699    1.17139209876122   -4.16360822909153
H        -0.09793435953774    0.99610643329546   -2.80399152584061
H         1.80233122731557   -0.92200968784969   -0.70968442140307
H         0.61527448830758   -1.34923852566138   -1.99584435262116
H         0.37547682531476    0.77736673540554   -0.21147127371976
H        -0.59468229704094   -0.55167751975794   -0.30415784523629
H         2.19100061754761    1.75095704510601   -0.60110092849789
