35
 energy: -49.720911829625 gnorm: 0.107327865232 xtb: 6.4.1 (79825abcba525fcdf90b791dcacef51065a7a4e7)
C         3.61656430685881   -1.31382707710282   -2.55654201668350
C         2.90313740111996   -0.06818729437022   -3.06140637522212
N         3.85283665966640    1.07741701384256   -3.16884983523480
C         3.70708901646140    1.74675076448339   -2.06179139427248
C         4.35985649128541    3.09051685705912   -1.98870059225007
C         3.79953502583589    3.81599724770353   -3.21794436947033
N         4.52602199139745    4.56083379298150   -3.99065390088394
N         2.51996537232007    3.45304250062924   -3.60391742577294
C         1.38786018772784    3.02973495677624   -2.75712609973989
C         0.30385205931772    4.04881979483234   -3.19418937348039
O        -0.98612948018428    3.83335586444596   -2.62150370366161
C         0.90261500440100    1.56502484861362   -2.83083458145966
C         1.83150633755067    0.55756686633713   -2.09453233608615
C         0.91537607011137   -0.40919233028417   -1.28189554890525
N        -0.06737559680405    0.25394976916782   -0.41072180900259
N         2.74765852911454    1.27346012904066   -1.18474172686864
H         3.98872152675456   -1.33633262229364   -1.52539208635578
H         4.46797565642666   -1.44521038743246   -3.23254439988237
H         2.90825266037504   -2.13281313296797   -2.69762397912719
H         2.56560926527130   -0.19149365299125   -4.09947415508191
H         5.44883566556680    3.05393719740034   -2.07503385424210
H         4.18101590267362    3.65411934059181   -1.07090852212747
H         5.51634032209974    4.43923853364581   -3.74431720800157
H         2.23150156839575    3.73238770176727   -4.54448134448384
H         1.71165182058093    3.25497525129881   -1.73195017369084
H         0.17938505709755    4.03281047066147   -4.28179190235363
H         0.66200113799682    5.04882034858397   -2.91914853994244
H        -0.99682532587086    3.79458691156301   -1.64618333275506
H         0.72464608663492    1.15568977116756   -3.83424978110326
H        -0.02683268889095    1.57107929277099   -2.24558659542391
H         1.49844517716694   -1.13974926483635   -0.72175240973030
H         0.28314297593682   -1.04288660039791   -1.91624056078815
H        -0.04369416298457   -0.19976553648990    0.49921123733214
H         0.11463140687696    1.25828245057844   -0.37630670392670
H         2.36012331749693    1.96258124151243   -0.54350694643786
