35
 energy: -49.716083132659 gnorm: 0.117955249159 xtb: 6.4.1 (79825abcba525fcdf90b791dcacef51065a7a4e7)
C         3.58868010370782   -1.39894632727743   -2.85336326437831
C         2.98316918288647   -0.02401812244474   -3.09505190535461
N         4.07828416463050    0.97863924544112   -2.94916364105780
C         3.79782007129051    1.67093414708351   -1.88291034261121
C         4.22472308641824    3.06275463133982   -1.53977112381803
C         3.61576077783789    3.86359518333458   -2.69698395043375
N         4.30353190347615    4.85484506831826   -3.17031190302594
N         2.38490860683983    3.48932904024871   -3.20975837731840
C         1.10947031638047    2.99312030185492   -2.65754373204171
C        -0.03337206001139    3.84222990065687   -3.27199960511870
O         0.10927081923441    5.26210174629669   -3.22658044549363
C         0.81805604475110    1.50441422364017   -2.94926872939531
C         1.79386377808473    0.53115964697549   -2.22779351255219
C         0.99361974732753   -0.67528922575716   -1.64608295595079
N        -0.11784891846692   -0.29150936236024   -0.76185877991900
N         2.66004562023767    1.21103589182450   -1.24440434878625
H         4.51190429202677   -1.49561525373045   -3.43696406813570
H         2.85482280786374   -2.15255089998308   -3.15779010177660
H         3.67165723860667   -1.51324134732690   -1.77058945975450
H         2.70914416870436    0.04663664659887   -4.15648142255388
H         5.30538000837924    3.21671518978498   -1.59584173718757
H         3.74064773580173    3.34458458589051   -0.60263882768731
H         5.23181651156873    4.92183994442087   -2.73442552136700
H         2.45155789086127    3.33741455178404   -4.21890923672364
H         1.14849824100889    3.24006671699991   -1.58793905117861
H        -0.96137849769148    3.64456591202000   -2.72577566419889
H        -0.22489164162619    3.44775617437784   -4.27779782451119
H         1.04119378753583    5.54963776863504   -3.26793108653759
H         1.06461641288440    1.30642180755117   -4.00097078102766
H        -0.21882998332108    1.30521344727990   -2.64659516546435
H         1.73941614028985   -1.22967688305587   -1.07697362277484
H         0.64946386067792   -1.35867174326143   -2.43235629664158
H         0.34818152819719    0.29531644159879   -0.07421960193325
H        -0.55790595884167   -1.17197447670529   -0.48959774690350
H         2.24198826305758    1.80900617567122   -0.53453600081677
