35
 energy: -49.723474737911 gnorm: 0.124297513707 xtb: 6.4.1 (79825abcba525fcdf90b791dcacef51065a7a4e7)
C         3.55704941048252   -1.36320341149641   -2.54136964979524
C         2.95802121452121   -0.10980012658086   -3.16236068153328
N         4.05047776183221    0.90020589410124   -3.05141689577344
C         3.79997705792468    1.58200761401988   -1.97103538345475
C         4.28771671063136    2.97605702677884   -1.73462223364252
C         3.56345339121080    3.86985392805764   -2.74847229410202
N         3.95574527646357    5.05838058701040   -3.08485938531106
N         2.50062837099677    3.28984316583001   -3.42078202721242
C         1.27170859581300    3.02351808369666   -2.64829632580179
C         0.03460064152391    3.83959757796981   -3.10459667822119
O         0.21617784258860    5.25318802242627   -3.01952181591631
C         0.92420090961117    1.53958403393464   -2.90018856273762
C         1.83049423623529    0.46769925496786   -2.22963126224244
C         0.94151437832957   -0.70237505109561   -1.70528646972620
N        -0.24028571013217   -0.14296023179822   -1.03081958834479
N         2.70734188428517    1.13715838170904   -1.24855043244090
H         4.41926006354074   -1.67541680872990   -3.14252958315312
H         2.96816056175099   -2.27183675403349   -2.70488554671485
H         3.79356155611414   -1.16813121146501   -1.49334459985289
H         2.76065749920984   -0.16143660393679   -4.24175664129152
H         5.34612650474139    2.94109204241484   -2.00520180072817
H         4.19847903289116    3.30090838934169   -0.69612224997322
H         4.84125589845306    5.40759576323391   -2.69740969643569
H         2.20404436670634    3.98992733004508   -4.10475988927180
H         1.44939798113096    3.14668510513980   -1.57134866656164
H        -0.74504311065076    3.60923706652988   -2.37130461213341
H        -0.23763942023120    3.53182650359588   -4.12198630124497
H         1.11692247247431    5.57969428534390   -3.20639083609959
H         1.00543981850932    1.41564494887914   -3.98835654547704
H        -0.08527783506883    1.20420932250197   -2.62650748139587
H         1.54164686805546   -1.42073723281578   -1.14739748716775
H         0.57124379593277   -1.24080020472962   -2.58658026581762
H         0.01914640883586    0.41057537422403   -0.21799128899428
H        -0.73562595506667   -0.94642479483880   -0.64084802274708
H         2.22944399557644    1.66718689861617   -0.52264627464155
