35
 energy: -49.727872654737 gnorm: 0.112392215835 xtb: 6.4.1 (79825abcba525fcdf90b791dcacef51065a7a4e7)
C         3.44712143967939   -1.47912092098667   -2.41626761285640
C         2.84071474478102   -0.22887553469757   -3.03646260198682
N         3.96001901932375    0.74268630248391   -3.20707189209675
C         3.83703634865915    1.60740146421572   -2.24168526536665
C         4.48314491828501    2.94575211842523   -2.07281803754294
C         3.75485222226892    3.87647547988057   -3.04988811499886
N         4.23829977705765    4.91862871492556   -3.64975467589959
N         2.56055511457092    3.44704863529672   -3.60419564690951
C         1.35063788835948    3.03977666755905   -2.86383303024022
C         0.15540188382867    3.89785800288788   -3.35346464596021
O        -0.95405618197397    3.82357074253361   -2.45790328589438
C         1.02294988084820    1.53251766417649   -2.94787087965713
C         1.85752337158814    0.54497210605667   -2.08288966674885
C         0.93395949322427   -0.37092102475549   -1.22122496253423
N         0.14539900253112    0.60729164005823   -0.45586602162293
N         2.85095271782952    1.32114231422954   -1.31463524557232
H         3.92715576807475   -1.15294315666548   -1.48597046135733
H         4.18298061955813   -1.81897173936528   -3.15257921060956
H         2.71151268476252   -2.27937028529625   -2.31220812536107
H         2.34327747089612   -0.29810757174305   -4.01343624267186
H         5.51930783838400    2.94170817940238   -2.42069327108475
H         4.41480402589047    3.23102486054441   -1.02118931579773
H         5.17405219318053    5.16507717690122   -3.30359266798371
H         2.32484732654338    4.08242959095161   -4.37011893347418
H         1.40776343948452    3.32219281543821   -1.80386243357377
H        -0.08574062747897    3.50920115689311   -4.34816245697849
H         0.45016603087816    4.95171463982581   -3.43358709847082
H        -0.81110933364062    4.32489619151268   -1.63261167009044
H         1.08410347726210    1.22241325428532   -3.99961499566321
H        -0.04168773931339    1.49952693699124   -2.67976044192242
H         1.46175178454602   -1.15957116329347   -0.68558553172991
H         0.34689594653360   -0.86989595652352   -2.00228905861057
H        -0.37099416660779    0.07271012778961    0.23836538085410
H         0.63797780952544    1.34599316289252    0.04879352873003
H         2.48513125080933    2.04931463097968   -0.70455885601194
