35
 energy: -49.722228290574 gnorm: 0.110647667263 xtb: 6.4.1 (79825abcba525fcdf90b791dcacef51065a7a4e7)
C         3.69223884285737   -1.35971682599211   -2.84844309601879
C         3.05048674366224   -0.00052332096790   -3.08557534281671
N         4.05529756500971    1.07699536949135   -2.85064835065863
C         3.67381968340889    1.72167898229393   -1.78590138389399
C         4.13018404188855    3.14204917851770   -1.67896666524118
C         3.65408680786071    3.82263514064089   -2.96794160034035
N         4.26282815637110    4.71619810934670   -3.68252120633138
N         2.39249052975010    3.49679241115303   -3.43720826844477
C         1.19269209164289    2.93502543304997   -2.78697097228383
C        -0.06021779062025    3.76096755793083   -3.17769883899315
O         0.15323206812620    5.12826364008288   -2.82643463642632
C         0.91556794209155    1.42961351096769   -2.99483797269645
C         1.81539852656130    0.43093627760481   -2.21195841566787
C         1.07793819258937   -0.74961003264803   -1.50714692833892
N        -0.05396186139434   -0.21719115786295   -0.73265716972139
N         2.54869849250156    1.19122198854682   -1.18055463648590
H         4.44904978889668   -1.62939794580144   -3.59462468619704
H         2.90822526435203   -2.12365687621755   -2.81911070003771
H         4.11411511725773   -1.43914176211376   -1.84442130657014
H         2.75930189369520    0.08632407504823   -4.14121890797487
H         5.21837820392785    3.22423619095162   -1.74017050071733
H         3.67478305543551    3.65162467979767   -0.82754622742451
H         5.21852798382906    4.96786667310796   -3.40056670730641
H         2.21747601773541    4.16301223770740   -4.19313595500599
H         1.25022648994537    3.05689463310772   -1.69683447347037
H        -0.83870926138359    3.37495366859183   -2.51168689651239
H        -0.47059096026622    3.62538344857129   -4.18622753671169
H         0.79346845615066    5.24443963729163   -2.09878927969674
H         0.92652319229215    1.17530363310220   -4.06314349087440
H        -0.08158989894946    1.40608048911581   -2.53489523620444
H         1.82771648395869   -1.24127514623103   -0.88783981974018
H         0.66272259318016   -1.39206529086997   -2.29361241333812
H         0.09535163334733    0.62715001517821   -0.18567453760109
H        -0.57978084630150   -0.90370955328793   -0.18933224693279
H         2.03702825647270    1.84018041251676   -0.58616417295077
