35
 energy: -49.712559880035 gnorm: 0.128017579882 xtb: 6.4.1 (79825abcba525fcdf90b791dcacef51065a7a4e7)
C         3.57130619604748   -1.42515637637559   -2.89011858534947
C         3.06758223399859   -0.00941851341212   -3.12977014481465
N         4.14082903174705    1.01400971184942   -2.96662007843236
C         3.78089671228290    1.69593824424832   -1.91769177177484
C         4.28611544377661    3.07631734027472   -1.64117328044963
C         3.68111593374123    3.79059832062984   -2.85571041113039
N         4.20814577376317    4.87417438283672   -3.33293914372119
N         2.40334745781376    3.50866701207955   -3.30939783805660
C         1.25378987395582    3.00981649403546   -2.52992847281454
C        -0.03425799840801    3.71456550280299   -3.02882057283220
O        -0.24777102918106    5.11026238836041   -2.81695191197363
C         1.01028567621148    1.53976369015912   -2.93726369197117
C         1.88646516012197    0.47834618145769   -2.21224367930242
C         0.93541676049304   -0.63762570413277   -1.67894245860570
N        -0.18077064416984   -0.05480590307485   -0.91805566469982
N         2.76745870291283    1.08945700156766   -1.19737874497652
H         3.49427879079297   -1.56560979585504   -1.80539867157459
H         4.60564064123265   -1.57349589020500   -3.21766966649906
H         2.99172612911631   -2.26715609209085   -3.27413821056306
H         2.74300934230193    0.02593218755536   -4.17863484791802
H         5.36674736506897    3.24022779741301   -1.63524621095493
H         3.95436615322986    3.55873026392423   -0.71965596931283
H         5.17990990521978    5.02193228955124   -3.03287309138140
H         2.12033931196286    3.99629889436239   -4.16264289288179
H         1.52725949737766    3.17597549056325   -1.47913571586397
H        -0.93702751083636    3.33676763510151   -2.53800129153065
H         0.00178239515714    3.50295059976569   -4.10485010360588
H         0.35916843037600    5.68695261744155   -3.31886836761945
H         1.16768805402293    1.32049395080561   -4.00178962986068
H        -0.03034413552338    1.24230595112000   -2.75009171955443
H         1.55330037216348   -1.30462016471790   -1.07829149708298
H         0.44772375191913   -1.04446317962487   -2.57354823772512
H         0.09682418526539    0.43882717905428   -0.07326928633669
H        -0.50163574581758   -0.90639904609610   -0.45455831499548
H         2.38838957465452    1.62509393101043   -0.41914154551657
