35
 energy: -49.728130881616 gnorm: 0.110466675174 xtb: 6.4.1 (79825abcba525fcdf90b791dcacef51065a7a4e7)
C         3.64610771347240   -1.53655254313706   -2.67452613616771
C         3.07475221648555   -0.17106281897405   -3.02733648133480
N         4.10123594175880    0.90267419622729   -2.88840489711653
C         3.73529479873420    1.66879237291126   -1.90150143855155
C         4.22699309189676    3.06414878454160   -1.68157372867878
C         3.65616102387731    3.96500976112199   -2.78335520250575
N         4.17768927196051    5.01569179638875   -3.33446348545131
N         2.43909270579219    3.59911744133535   -3.33369812733047
C         1.24924460234040    2.92175059135073   -2.78293267646857
C        -0.01319361038429    3.71623947658191   -3.20680646537084
O        -0.02485925781391    5.06554486792801   -2.74023940258501
C         1.02118195571562    1.43011633115989   -3.11351726456989
C         1.85531976886834    0.44392153993388   -2.24657688326045
C         0.86372252590542   -0.57742954980546   -1.60792720141760
N        -0.17361730371099    0.09298546198724   -0.80857010822931
N         2.65664064990883    1.13657484367291   -1.21814449168845
H         4.56522294055575   -1.50065350124688   -3.27136459269145
H         2.98992243052051   -2.36823831839283   -2.95176560324541
H         4.09231051490843   -1.64000599379924   -1.68329049137999
H         2.90053927662148   -0.21299726855407   -4.11112879229803
H         5.31155643495887    3.05160686453860   -1.81660035494494
H         3.87019377812556    3.28222108043192   -0.67305366338934
H         5.16453106384035    5.12220727603965   -3.06801406597400
H         2.24893821195963    4.01603591558004   -4.24798792905376
H         1.20200718123968    3.19473666698931   -1.72000882615890
H        -0.96125695216553    3.28941250575441   -2.86384549640345
H        -0.13443123498248    3.75516991330771   -4.29662534202040
H         0.82149474623383    5.47235547905150   -3.00680512980962
H         1.17533087800201    1.13395220214375   -4.15974626125139
H        -0.03177691703363    1.27361163125840   -2.84294608262475
H         1.39740625601126   -1.26610699297283   -0.95344388190845
H         0.39642065262929   -1.19533747940336   -2.38477947584223
H         0.22425327929114    0.18177740105599    0.12320858348921
H        -1.01101972802433   -0.48312213844046   -0.70931137024188
H         2.16738495660571    1.79196417127436   -0.61205276588058
