35
 energy: -49.716975952104 gnorm: 0.112609247641 xtb: 6.4.1 (79825abcba525fcdf90b791dcacef51065a7a4e7)
C         3.55859392933459   -1.45827407956719   -2.43519552105197
C         2.98679446635269   -0.18440642667642   -3.04000212531031
N         3.99070334945866    0.88379990336179   -3.31746239241514
C         3.85674739782658    1.68520072080282   -2.30028936516652
C         4.34147612226598    3.07843631066950   -2.05313025709520
C         3.77527826915749    3.76836886947373   -3.30002050225827
N         4.58414557931749    4.27581122494855   -4.17630855396913
N         2.39521358110043    3.85787655264638   -3.37363903030344
C         1.34511651426873    3.09270208982854   -2.67384536385198
C         0.01545452480167    3.86214191419883   -2.88501635132006
O        -1.00129860327420    3.46112280328025   -1.96640723641815
C         1.19509681425898    1.61094090845618   -3.08390564125326
C         1.89823910910081    0.55778825488723   -2.18035037994296
C         0.88883775203439   -0.20940025812489   -1.27104996219494
N         0.26161729385468    0.80841504597255   -0.41364195841579
N         2.88501379663050    1.31709564788162   -1.38707554595653
H         3.80831769174792   -1.15750388400509   -1.41076737893055
H         4.54378278462490   -1.64488120227803   -2.87533502639105
H         2.80823077418942   -2.24981141004928   -2.48784016539847
H         2.41225934889276   -0.46808729892095   -3.93227394018780
H         5.42151300838123    3.24188610380949   -2.01476835304892
H         3.84215413658124    3.55458819195284   -1.20700322235105
H         5.56737880669705    4.18493976912836   -3.89136580704038
H         2.01220680886274    4.19127249346876   -4.26136565593571
H         1.56567561094004    3.10207904369944   -1.59782229214068
H        -0.27848177119769    3.74841077589910   -3.93348870497798
H         0.29716439017706    4.91552455052272   -2.76277108160854
H        -1.83609908250830    3.66831706050422   -2.42797625749507
H         1.50500358562422    1.50756797342048   -4.13240077269915
H         0.15937763799778    1.24644565631810   -3.11312677209497
H         1.35471785564439   -0.85875544101811   -0.53028216164864
H         0.28260907079507   -0.81534485913695   -1.95588471273771
H        -0.20038227035640    1.52754409057549   -0.96482827747361
H        -0.41449290528132    0.46495492742787    0.27039402767957
H         2.69912267701567    1.74389196878347   -0.48178947133743
