35
 energy: -49.719284522028 gnorm: 0.127323631553 xtb: 6.4.1 (79825abcba525fcdf90b791dcacef51065a7a4e7)
C         3.69120446017686   -1.42877163910327   -2.71123526843251
C         2.99767695407852   -0.14178957552267   -3.13335037022782
N         3.94596780185607    0.99487225637274   -2.94726888784831
C         3.61526319018314    1.72093123357745   -1.91853122233663
C         4.13209242307957    3.10714104655801   -1.69838414182818
C         3.62701150198604    3.94290524128385   -2.88063352543019
N         4.06977325088205    5.03471657699921   -3.42059168000738
N         2.46972415381931    3.43046921320991   -3.44286579988375
C         1.32425932470689    2.88829308815792   -2.68665001620447
C         0.11181975476392    3.77222188433974   -3.07817521564439
O         0.25892633545417    5.15050751443547   -2.73592629674170
C         0.92160795001453    1.41567436196657   -2.92231385220466
C         1.83543146807191    0.37808124710435   -2.20937716099278
C         0.87260935185186   -0.72718427197659   -1.67490714594693
N         0.01046347557811   -0.08078848787829   -0.67321909943942
N         2.63565694168696    1.07682133638667   -1.18421456573678
H         4.46166390454376   -1.78836819815386   -3.40359371903620
H         2.86925492184445   -2.14470346996667   -2.81603339668420
H         4.08796279943921   -1.28287011533387   -1.70443676640367
H         2.83680381659143   -0.06261822833146   -4.21712438543787
H         5.22023437326762    3.09623654331752   -1.80083073654694
H         3.73932450225819    3.57704580224192   -0.79456068161471
H         4.89504801323837    5.41083623040083   -2.93721487963292
H         2.34172763369996    3.91882995377984   -4.33226237006979
H         1.60101472467041    3.10363915135891   -1.64569257485861
H        -0.79380406985850    3.35129171064796   -2.62952071342642
H        -0.06474685878964    3.65014308409773   -4.15420510482635
H         1.09832286450538    5.36016843850887   -3.18794734213836
H         1.05701987810102    1.29327202443290   -4.00525035942561
H        -0.13270692985614    1.30832901698113   -2.63365843092511
H         1.44724954264247   -1.43989935910992   -1.08391712592102
H         0.31016039075449   -1.08040633846311   -2.54815741353386
H        -0.41179677796949   -0.77740220766837   -0.06426742644655
H        -0.71033744723796    0.57325948082291   -0.98251242977942
H         2.20506744812277    1.50307757789472   -0.36619760797420
