35
 energy: -49.720998171125 gnorm: 0.107650022670 xtb: 6.4.1 (79825abcba525fcdf90b791dcacef51065a7a4e7)
C         3.51589132251052   -1.46251466090212   -2.50600137569915
C         2.90876922569842   -0.14851100523046   -2.97534301775284
N         3.94230561163540    0.90544177865127   -3.19183333779826
C         3.86571743494806    1.66818083361380   -2.13960151998844
C         4.46627087431475    3.03337116508937   -2.02670397740786
C         3.79711036058599    3.77781647943966   -3.18831819420931
N         4.33459502130823    4.70840051370216   -3.91272720326354
N         2.50210035427001    3.45125878655449   -3.55481378052901
C         1.33274080118443    3.07420719398358   -2.73729478035477
C         0.21255562457105    3.99997858804726   -3.27837179951960
O        -1.00239031342528    3.69390268710430   -2.59377712198691
C         0.88231248710695    1.60033494591452   -2.84258708594388
C         1.82941804065354    0.60459797871512   -2.11358048516883
C         0.97082841874090   -0.33607653046831   -1.21233030996258
N         0.35984087889497    0.55516512367079   -0.21388926516428
N         2.83981039837354    1.29669843801386   -1.28916483063809
H         3.66891052067513   -1.46120267338828   -1.42024768366697
H         4.49409493026099   -1.46786246759474   -2.99817124884052
H         2.83587259554070   -2.25076993434490   -2.83550982784998
H         2.50662660525740   -0.43368143402092   -3.95701177511996
H         5.53374621487787    3.13343933525652   -2.23918902553343
H         4.14033846367108    3.54483602849098   -1.11887923434567
H         5.30080648183108    4.95209372094289   -3.66123843665531
H         2.25835779778089    3.90130591764665   -4.44022484193485
H         1.56127393133570    3.21576309041440   -1.67226218645024
H         0.09687350084809    3.78727376523380   -4.34608051605736
H         0.51216459665229    5.05402832331510   -3.22239904098777
H        -1.74274154935353    4.19608780457967   -2.98436311267943
H         0.59835125057188    1.38458374510443   -3.88128224208180
H        -0.05711523928134    1.61228460923126   -2.27359005074868
H         1.70566928891996   -1.02339448146403   -0.79394497007118
H         0.22122370902901   -0.97941031873179   -1.68971392126330
H        -0.64942925447999    0.43850317794370   -0.16740994673031
H         0.82244440120836    0.27027954173914    0.65088427443828
H         2.47060829703795    1.86561149235046   -0.53003294474505
