35
 energy: -49.715099782112 gnorm: 0.120644302683 xtb: 6.4.1 (79825abcba525fcdf90b791dcacef51065a7a4e7)
C         3.52473803198737   -1.61964283017449   -2.52876062147271
C         2.95457423140236   -0.35877607470751   -3.16170034769357
N         3.95917733135503    0.72131212552051   -3.38545039037907
C         3.88459737868702    1.55194505213828   -2.38579287260039
C         4.53825453923922    2.89509721164540   -2.30944193695936
C         3.53962079796024    4.00367298937619   -2.66315446556329
N         3.71421796012254    5.26712576964993   -2.43326820152967
N         2.36820261167799    3.59238500950256   -3.27685754575929
C         1.20597419097011    2.93412755964512   -2.64929940699818
C        -0.03474905521152    3.62358791339370   -3.27370480085446
O        -0.05646809292664    5.04633228858695   -3.15634771555711
C         1.12023321314318    1.43372788505517   -3.00667994531956
C         1.98277327027623    0.42048101955216   -2.20088398582201
C         1.01433388518274   -0.45738033801497   -1.34895609037935
N        -0.07507416384990    0.36550120696414   -0.80072435776463
N         2.95311867244712    1.21364974921993   -1.42058270737313
H         4.48993835825947   -1.78212324758405   -3.02299348607043
H         2.89504548449575   -2.51244139471144   -2.60319242386686
H         3.77300840555187   -1.57002610090684   -1.46657058994019
H         2.46584432306234   -0.56028883775436   -4.12463860924318
H         5.45225638559207    3.00050205598667   -2.89949070966442
H         4.88552136172001    3.14232280104642   -1.30432540129594
H         4.62384626858224    5.47962327086872   -2.00476065800363
H         1.95215142293929    4.36986923743855   -3.79485879380453
H         1.22484434544631    2.97096426828924   -1.55164424081311
H        -0.81608546852789    3.18354690341623   -2.64560853263600
H        -0.18848051252756    3.29981711668501   -4.31074792546911
H        -0.05810804582585    5.15566069098271   -2.18634159527944
H         1.43538192756951    1.20488009544680   -4.03351011303626
H         0.05184162441922    1.19708440287011   -3.10135909507083
H         1.58598180144381   -1.10304314301308   -0.68278677611254
H         0.50153708595471   -1.05606552787304   -2.11203943922871
H         0.19473498586124    0.78658914957622    0.08487402949173
H        -0.97081758621912   -0.06675511308051   -0.56879058358660
H         2.75697138443903    1.88499037633591   -0.68093315235521
