35
 energy: -49.724676090699 gnorm: 0.123596910000 xtb: 6.4.1 (79825abcba525fcdf90b791dcacef51065a7a4e7)
C         3.74860027589315   -1.39774385247045   -2.53111073972458
C         3.08722020048558   -0.18471306477349   -3.16877612055334
N         4.04261206240850    0.95302177949363   -3.03214593801377
C         3.70158222230868    1.60057513699623   -1.95548364176807
C         4.23196216720910    2.98036931449920   -1.72740461754955
C         3.59121035273157    3.96402641980858   -2.71390245023758
N         4.13148390544350    4.99294416007198   -3.28755527641836
N         2.41568343867139    3.52572402773922   -3.30044940620217
C         1.23714495276369    2.99186473329518   -2.59055626996461
C         0.01221829078020    3.84859306127511   -3.00311300247597
O         0.19707843256271    5.25682426480016   -2.85765663616817
C         1.00310627062085    1.51078908167625   -2.96192177277662
C         1.87996827366051    0.38743283845573   -2.33811455806188
C         0.89919856226133   -0.64469445028385   -1.70007022870588
N        -0.32213193445335   -0.11915159970864   -1.07026193640367
N         2.63440391053699    1.05912395389977   -1.26144615545334
H         4.71476104904782   -1.56259978754019   -3.02267310699009
H         3.13673997807013   -2.26919756443397   -2.78672271702893
H         3.68499522307374   -1.30284660528942   -1.44515651614163
H         2.78972035125841   -0.34006053361852   -4.21475671816754
H         5.30271110602646    3.05617213368908   -1.93336037973652
H         4.08661985557831    3.26935710258747   -0.68465073731255
H         5.07878976965236    5.23023682317182   -2.96739695283544
H         2.24647874001010    4.04047289352396   -4.16780687123358
H         1.37431938672303    2.93678288042731   -1.50211286466691
H        -0.83095704559463    3.65337466384960   -2.33261116262528
H        -0.25731395987782    3.61156300862333   -4.03997772134981
H         0.89701018594810    5.44228632734262   -3.51230663797058
H         1.13684294615669    1.37179072713267   -4.04306198897097
H        -0.06032951729419    1.34238761172552   -2.74473489401857
H         1.48984454265618   -1.21054035526520   -0.98007085902407
H         0.50015898544349   -1.23402547264115   -2.53501757283372
H        -0.23695487148340    0.23133213763332   -0.11931369888081
H        -0.96001432980944   -0.91268815964386   -0.99025654858988
H         2.22476515707340    1.55905051262827   -0.47498382618927
