35
 energy: -49.716786395034 gnorm: 0.117004657881 xtb: 6.4.1 (79825abcba525fcdf90b791dcacef51065a7a4e7)
C         3.55456043838426   -1.53733924726664   -2.62466858166174
C         2.84534222689427   -0.25367114617874   -3.03048893737167
N         3.90036013841836    0.77801477349104   -3.25058748745120
C         3.81721491711620    1.58654620770275   -2.23363507101161
C         4.61470270262607    2.85072987778101   -2.17879146241670
C         3.82791175709305    3.81025394005332   -3.07967757147857
N         4.22855858008804    4.96523174735120   -3.50997189162290
N         2.52535750203411    3.52480580339387   -3.45368507503184
C         1.32370610904804    3.03833342833375   -2.74850033443079
C         0.22319937226791    3.95612235065451   -3.34110496430489
O        -1.10377689828548    3.89346408708877   -2.81798559927765
C         0.97425757736831    1.53999198268080   -2.88681212045409
C         1.82570537598928    0.50202208988387   -2.10093247684847
C         0.99210377974044   -0.23859959341592   -1.00965596048452
N        -0.02041627195121    0.62133922622624   -0.37735038650078
N         2.80775934256177    1.29394387871969   -1.33412947955284
H         3.98334860511470   -1.46471345903297   -1.61811809567055
H         4.34530422832663   -1.66245386685068   -3.37180489520720
H         2.88824146951374   -2.40106245339884   -2.67313420913944
H         2.40482863908119   -0.36101637726777   -4.03105837295202
H         5.59874006731617    2.71289612143698   -2.63413689470114
H         4.69906332565397    3.47806701761870   -1.28923797569261
H         5.20689959495444    5.08982282570544   -3.22096758114645
H         2.27738074525115    3.95942410889819   -4.34560438457004
H         1.26156287987608    3.36200054207927   -1.70067511380673
H         0.21040370957848    3.71758374258657   -4.40954457428125
H         0.54047135609884    5.00592728997533   -3.30693763104822
H        -1.08790862636527    3.95408293654679   -1.84384966790801
H         0.98239378243563    1.27026822893121   -3.95135573097155
H        -0.07824906375523    1.52788014925953   -2.57295236857922
H         1.63375248759245   -0.70511141290160   -0.26259705503874
H         0.50809373131660   -1.12538292398182   -1.43747636753129
H        -0.43692571582541    0.00126906649775    0.31288828255639
H         0.46235664657443    1.39750977267830    0.07815447379160
H         2.51251364178508    1.92429813267868   -0.59133948921721
