35
 energy: -49.720495040019 gnorm: 0.113757705060 xtb: 6.4.1 (79825abcba525fcdf90b791dcacef51065a7a4e7)
C         3.80339293842000   -1.23468881231092   -3.18325327961423
C         3.02746287743133    0.06451900707027   -3.34286535685512
N         3.97951654562531    1.17552613321509   -3.05107949657093
C         3.62716702061271    1.68221796911990   -1.90480655964380
C         4.12645245851558    3.01034060607758   -1.43156316919345
C         3.61646834625118    3.82777769067507   -2.62447350123542
N         4.52763812912466    4.22936576105659   -3.45401644308745
N         2.31765591548755    3.81211047031120   -3.10494273146881
C         1.17611910400047    3.01600769840566   -2.61400377114804
C        -0.10770694472815    3.75266642054113   -3.07634179396200
O        -0.15507477558373    5.03063448486390   -2.44151907966584
C         0.98565077268120    1.52886963962676   -2.98604371636688
C         1.86207816083168    0.41447873213829   -2.34576283021058
C         1.00431649706464   -0.67544435454945   -1.63119363052562
N         0.16570706827943    0.03810246606095   -0.65544410574856
N         2.59756347165158    1.04766861923931   -1.23324816200451
H         4.22459278362956   -1.38466368748244   -2.18206603251296
H         4.61017309393486   -1.11719238455232   -3.91430899051424
H         3.23104864043541   -2.09610560741969   -3.53358279954917
H         2.73212932827185    0.22541673284985   -4.38862079241000
H         5.21486187950901    3.10876226108462   -1.41298173578775
H         3.58144370135158    3.21327702415609   -0.50757383659592
H         5.51830998408989    4.24362498950953   -3.18095323087087
H         2.29916664322342    3.92748710619864   -4.12094075447658
H         1.16616875033852    3.25329073871904   -1.54154974539681
H        -1.01212056397119    3.25015903093098   -2.71836145068085
H        -0.12696899147385    3.91231592051170   -4.16172667546341
H         0.65669919188346    5.55350626673476   -2.58468117817982
H         0.97875638801341    1.38504196207925   -4.07477521120688
H        -0.06947444572078    1.37845394795177   -2.72050507199342
H         1.66340833105104   -1.36063153651121   -1.09869025994629
H         0.45682940083586   -1.19139312672400   -2.42977703284719
H        -0.26156459907903   -0.55754233343509    0.04956846986335
H        -0.60586002816127    0.56714494449594   -1.06506997859767
H         1.98140652202296    1.50784799719284   -0.56628560759344
