35
 energy: -49.726204928470 gnorm: 0.099785250933 xtb: 6.4.1 (79825abcba525fcdf90b791dcacef51065a7a4e7)
C         3.27418387224178   -1.55633499677987   -2.54817340161986
C         2.79512286743613   -0.19627673736765   -3.03420479497241
N         3.97713833757389    0.67069358460505   -3.31184463358803
C         3.91379740313859    1.54536213475078   -2.34967456171221
C         4.60805060885839    2.86884999230213   -2.29011555076131
C         3.78229578015900    3.92501246939475   -3.03440846572207
N         4.27285715078444    5.04431928158201   -3.46585556715255
N         2.50547779863181    3.64392124935129   -3.49128197001795
C         1.34116190393464    3.15945506781750   -2.72475214104602
C         0.11884204048801    3.82894046120147   -3.40471927193386
O        -1.07174815924397    3.36396382315429   -2.76852931274231
C         1.02477299514754    1.64915637401507   -2.79663697508953
C         1.92075646052699    0.63723234333676   -2.02645840456288
C         1.11877790847227   -0.19893770013679   -0.98149592420457
N         0.24449645510401    0.67166791497580   -0.18013472949508
N         3.00362224098105    1.35519564352907   -1.32539683540895
H         3.93570201447557   -1.45257548540221   -1.67989614872520
H         3.87188581109836   -1.94886073955427   -3.37752134671485
H         2.51707175398041   -2.31897831857669   -2.35451374201156
H         2.25523368459719   -0.40423993936177   -3.96800637181178
H         5.60268059783881    2.78031226795728   -2.73456957941164
H         4.66709302675782    3.27502544993383   -1.27842909589121
H         5.22730586486364    5.07311535206988   -3.08586081558076
H         2.23899365003786    4.43722896100305   -4.07912095799196
H         1.42694069761575    3.39416646660200   -1.65512022529343
H         0.04159535369791    3.55353568683357   -4.46151289129649
H         0.28131914033547    4.91008181660837   -3.31169296013320
H        -1.87942997771860    3.79786021997326   -3.10356850065845
H         1.04189287330611    1.39584430862014   -3.86509853591923
H         0.01351667795713    1.55924200832195   -2.37747001971501
H         1.89657209212579   -0.61523960285833   -0.34183015734082
H         0.68007064669630   -1.04469873297901   -1.52546734697114
H        -0.71802653705168    0.80369402271098   -0.48099205236143
H         0.25214788465839    0.43947254876260    0.81436104663239
H         2.76684805631916    2.22996448572586   -0.86174724620830
