35
 energy: -49.725169813083 gnorm: 0.103013978248 xtb: 6.4.1 (79825abcba525fcdf90b791dcacef51065a7a4e7)
C         3.47789559811617   -1.40440502047953   -2.67380139587924
C         2.83731689952366   -0.09481458686174   -3.10982462828289
N         3.82440528133947    1.02343036297213   -3.14248568524909
C         3.61664863682705    1.76363270460084   -2.09188297053325
C         4.20571869647610    3.13524176110075   -1.99786190094739
C         3.43240534726299    3.92306309541395   -3.06212042045233
N         3.86528329058236    5.05193025375920   -3.52893990776553
N         2.34414084641253    3.29416177764284   -3.64364716969499
C         1.19733598692933    2.89922976674009   -2.80294846400384
C        -0.01606344801445    3.75326404691329   -3.25341388040781
O         0.27475538620677    5.15030486806998   -3.20707482880459
C         0.90096656672712    1.38575588306120   -2.89145555797598
C         1.81917340090891    0.45776766904985   -2.04547343256140
C         0.95237376245675   -0.55166992468838   -1.23061721221434
N         0.86386242456155   -0.15645918600188    0.18376469331080
N         2.71140538135844    1.25306093140430   -1.17887800598394
H         3.90053587634485   -1.28375669229152   -1.66926326602842
H         4.26855643166893   -1.68090534444108   -3.37917016130484
H         2.71552420132367   -2.18586468657623   -2.65239328336906
H         2.40075988043766   -0.26547503495827   -4.10330708136985
H         5.24030340184000    3.15122377209698   -2.35006382052094
H         4.12961638069713    3.53122114806662   -0.98327689041410
H         4.71831521817726    5.33449171640009   -3.03024850295823
H         2.09686329571316    3.62635929962617   -4.57874299952456
H         1.36563238309470    3.20258223088483   -1.76073279934195
H        -0.83745492632772    3.67010709808843   -2.53436690503552
H        -0.25499099655552    3.48732858918192   -4.29077172056983
H         1.17234781215017    5.16803314116759   -3.59032514835731
H         0.94461371172000    1.13003599434162   -3.95858838260879
H        -0.12753803335078    1.33224643462076   -2.50969660529412
H         1.58938502074884   -1.43227854570485   -1.30928408004233
H         0.02391567627072   -0.61609708667973   -1.81156077554080
H        -0.06102230161402    0.19170063376443    0.42411759618284
H         1.04668331750461   -0.94010013072310    0.81263548480554
H         2.20887318338890    1.70664164366073   -0.41862844819461
