35
 energy: -49.713374879069 gnorm: 0.126836791534 xtb: 6.4.1 (79825abcba525fcdf90b791dcacef51065a7a4e7)
C         3.33133115435650   -1.25561897018599   -2.89079041878672
C         2.83282978025180    0.13233265061171   -3.26571856428009
N         3.99447220784017    1.06224685013760   -3.15742061838675
C         3.78564378246333    1.67846554745119   -2.02981535468751
C         4.41860970261962    2.99712906026225   -1.71734833648484
C         3.87285673671910    3.76649304231185   -2.92629620679887
N         4.61464745359730    4.36170615945076   -3.80670104466440
N         2.61661651142402    3.40170386070215   -3.38104797618106
C         1.34832487913891    3.12366083331804   -2.67959566604708
C         0.36372093724064    4.25689801229757   -3.06813182921272
O        -0.91681097218694    3.96147869735630   -2.51008936076573
C         0.88199992059743    1.66212312537454   -2.86048247021779
C         1.77025825550341    0.57347434372161   -2.19280545230734
C         0.99454003909384   -0.48137503173231   -1.34436538307583
N         0.02271205761327    0.14486570897713   -0.43448909366144
N         2.70077706250311    1.26410914245522   -1.27808404530763
H         3.62818757566006   -1.25261460705956   -1.83525978530751
H         4.07955790209915   -1.61366480487781   -3.60570439384152
H         2.56895645070144   -2.02962946799567   -3.00051837448765
H         2.46957537546668    0.25798559131970   -4.29478220764712
H         5.50463274646516    2.88073791956726   -1.67643155293410
H         4.06300404432811    3.44458157689559   -0.78713069530940
H         5.58757052953319    4.52873608561352   -3.52083524935248
H         2.47524323042586    3.70458507914369   -4.34757896351800
H         1.65226320496596    3.18630816048292   -1.62590848388642
H         0.35629520331684    4.45738573174001   -4.14441111741880
H         0.72818454734452    5.22561329812529   -2.70388426577371
H        -1.51499877126066    3.66973758085556   -3.22418020640835
H         0.71570727912022    1.35252015818718   -3.90094531926315
H        -0.11836978992377    1.65966965788286   -2.40696369866843
H         1.69874119682144   -1.18995894627603   -0.90910349892101
H         0.48344336637601   -1.06442055653463   -2.12058623465841
H         0.55693516692390    0.50092249196820    0.35432379497762
H        -0.60221024744995   -0.53370114865988    0.00370517023057
H         2.25108195906177    1.94570336180126   -0.67025420183279
