35
 energy: -49.715133664885 gnorm: 0.116392118565 xtb: 6.4.1 (79825abcba525fcdf90b791dcacef51065a7a4e7)
C         3.63530481096956   -1.35254285076072   -2.63604970378070
C         3.05146416215610   -0.05335650679584   -3.17152088742833
N         4.08886085882406    1.00835951194420   -3.02169036329102
C         3.75936245256978    1.64243552732414   -1.93347769295264
C         4.29634178282745    3.01935943446381   -1.70350233508137
C         3.62354680242722    3.86605898053397   -2.79059430343698
N         4.04580220511753    4.95610290460964   -3.35019183068232
N         2.42632438222881    3.37064559625763   -3.27970969813734
C         1.18135304181448    2.89483217587226   -2.64602609755520
C         0.00242277292759    3.83006755992498   -3.02031209354805
O         0.36131246646918    5.17113348870254   -2.68686597508287
C         0.93524306726550    1.41273630124899   -3.00532155471990
C         1.86616416200863    0.41996928006090   -2.25182886178153
C         0.93316920353211   -0.68581208867502   -1.66782158222017
N        -0.30436349442146   -0.12164352737824   -1.10681478945933
N         2.64558699021879    1.18074150756359   -1.25519322393938
H         4.53889373657002   -1.53955416823422   -3.22836001438397
H         3.07338769586372   -2.24732695947312   -2.92371727876095
H         3.64066476800288   -1.36127571629787   -1.54415104744104
H         2.60112584500640   -0.14746415798067   -4.16904460700001
H         5.38082466649658    3.10504255666286   -1.80943817052793
H         3.95217779064339    3.43409437903223   -0.75401822956384
H         4.92251658949419    5.36560654988763   -3.00396039849261
H         2.12911326053786    3.92357782174316   -4.08707399360177
H         1.29406067697122    3.01578549451834   -1.56010383338009
H        -0.75162078957509    3.55774941746143   -2.27473263329097
H        -0.31893260762895    3.58134993496743   -4.03952236816633
H         1.25762001440099    5.39541762720189   -3.00182099387720
H         1.26797500483756    1.23267044623000   -4.03630941002047
H        -0.13113839555124    1.16438595014442   -2.91827249010929
H         1.38620055219567   -1.31797713287408   -0.90455668735939
H         0.54004783356514   -1.40077371192935   -2.40128334710864
H        -0.10172654640333    0.72024148075538   -0.57336897526606
H        -0.87583417869988   -0.84183741755902   -0.66213838977895
H         2.17916857691183    1.86543534797164   -0.66366834339068
