35
 energy: -49.720029094214 gnorm: 0.106738782432 xtb: 6.4.1 (79825abcba525fcdf90b791dcacef51065a7a4e7)
C         3.86743286525020   -1.17438794946200   -2.77167626167346
C         2.95354053902364   -0.00858593816822   -3.11980115001477
N         3.84206503399740    1.18951347927164   -3.08875241436731
C         3.62121539629564    1.80237659976102   -1.96160882119520
C         4.12288247023097    3.20930414198652   -1.88389128380479
C         3.61411054968566    3.70044994955713   -3.24449745079649
N         4.29375249498588    4.37107641576453   -4.12084885584804
N         2.27551525148433    3.46931535679756   -3.51421820438021
C         1.22328266562213    2.91188089902981   -2.64244966464720
C        -0.02714609830523    3.80863615141311   -2.83451673252257
O         0.34309544745871    5.17974046814515   -2.68809230657881
C         0.86970867206959    1.40933092270274   -2.70245413386681
C         1.88558352559510    0.42810604029988   -2.05042060187528
C         0.95970853027583   -0.61752209086384   -1.35492518475735
N        -0.21573693392658   -0.04320421929176   -0.68188067236334
N         2.72739231130783    1.18651045152160   -1.10398641433147
H         4.18602871900958   -1.11270557078080   -1.72431307282932
H         4.71877889496183   -0.95738778630892   -3.42532980482000
H         3.31594993821497   -2.10144820914884   -2.94130386938409
H         2.51825212340445   -0.19097237877277   -4.11175558424493
H         5.20786203731975    3.08506549590848   -1.83860055743618
H         3.76510312882652    3.67555511825564   -0.96379456433498
H         5.29177919076289    4.43600003778842   -3.88436375100689
H         2.07938221189660    3.51026622549263   -4.51709429446734
H         1.54984125695426    3.27358270149865   -1.65802537120904
H        -0.71433556641465    3.73756021376348   -1.98519556787431
H        -0.51338835148679    3.72744708982162   -3.81476982940861
H         1.23925090553589    5.34129352579771   -3.03976440555729
H         0.64092950938787    1.16146398730358   -3.74758201474413
H         0.02521957460060    1.34725765461969   -2.00287571687458
H         1.54127204859152   -1.12859441979332   -0.58809253468687
H         0.65736603378002   -1.30532134618498   -2.15442622384321
H        -1.04015325500430   -0.57015170331900   -0.95947861401987
H        -0.09511863898125   -0.16891002674448    0.32442164938481
H         2.29464920665536    1.66732714714253   -0.31798247252174
