35
 energy: -49.729343716256 gnorm: 0.103046271324 xtb: 6.4.1 (79825abcba525fcdf90b791dcacef51065a7a4e7)
C         3.61754014472768   -1.42650932631768   -2.83611787322518
C         3.05982609041553   -0.03647528367564   -3.10490188936156
N         4.03421629678013    1.07316939091258   -2.89245322730004
C         3.63248291471113    1.69503165372724   -1.82160027192532
C         4.18204223092320    3.05353227014702   -1.52224163111578
C         3.73445409191842    3.85736196357294   -2.74896282822062
N         4.45284775624097    4.62958707393463   -3.50210540869609
N         2.45266362358314    3.63300572104046   -3.22297478248603
C         1.22864646433014    3.00884400971605   -2.68435511867615
C         0.00922016024788    3.74406804445878   -3.29842103854195
O        -0.18833313774717    5.01822372309552   -2.68527671190080
C         1.08436988335002    1.51907694032701   -3.06651988062099
C         1.83671223638160    0.43907465979853   -2.23734693850097
C         0.92837715817014   -0.67854768035057   -1.63722673042393
N        -0.04350968570544   -0.08114924322526   -0.70822024390664
N         2.52171620946064    1.19213769883830   -1.16813106784979
H         4.42736657534253   -1.50683120401318   -3.57096971934981
H         2.91993609761275   -2.24584363193421   -3.03905128597647
H         3.98318156288019   -1.48924623107505   -1.80912317866661
H         2.75071578368234   -0.04461442532192   -4.15898869897972
H         5.26713593996555    3.12216760459867   -1.63417012373747
H         3.90457927602837    3.41611543276964   -0.53051497490802
H         5.36000680687274    4.91463822730856   -3.11222611532246
H         2.26267987571877    3.96540857833027   -4.17129968331823
H         1.16207539992927    3.09914503400172   -1.59166398675149
H        -0.96807492573654    3.26564382187227   -3.17745752668434
H         0.18299835975343    3.84770586027269   -4.37683639183989
H         0.62969287050337    5.54974594643155   -2.71969817284594
H         1.25089407048366    1.39596339894572   -4.14502948383502
H         0.00395830597732    1.35816666837295   -2.95143905788736
H         1.70069712742331   -1.22628154188033   -1.09782627219361
H         0.44232445824386   -1.22248874573653   -2.45671535200669
H        -0.15767377845992   -0.60585451221912    0.15552015649677
H        -0.89308909354645    0.15668995127465   -1.22265433469194
H         2.05974878422687    1.63692348184604   -0.37755837199907
