35
 energy: -49.725120464205 gnorm: 0.102743069940 xtb: 6.4.1 (79825abcba525fcdf90b791dcacef51065a7a4e7)
C         3.65548336758500   -1.41506224711473   -2.82816914358356
C         3.00983247224988   -0.09186002646002   -3.21255860972016
N         4.04375337905904    0.98365235038225   -3.22531409878421
C         3.86057217751933    1.57397814492541   -2.07954425042264
C         4.45107000309989    2.90262313396412   -1.72858871766385
C         3.69311851116694    3.75359709835727   -2.75458825422535
N         4.31621897763833    4.59569803944777   -3.51764567641161
N         2.31653774519436    3.88602837549586   -2.82873127169676
C         1.15367620405595    3.04309127789998   -2.48944223912004
C        -0.07841858700841    3.76888787726632   -3.08927016542694
O        -0.60664054751901    4.85732367504604   -2.33115736230577
C         1.23987628122596    1.60900953664678   -3.05711346803466
C         1.93530486368522    0.49423471493285   -2.22428222532155
C         0.88837391295968   -0.52658473813411   -1.68007657715504
N        -0.09076896394033    0.14549144595969   -0.81169025569861
N         2.88420090433560    1.06013576287978   -1.24504310607925
H         3.84551660714695   -1.43365900075803   -1.74843806012535
H         4.56489820498008   -1.42158475213805   -3.43813979670818
H         2.98945786638146   -2.24670026386885   -3.06720033482730
H         2.58291440347123   -0.24709854163679   -4.21273679018348
H         5.51394582958660    2.92526827483505   -1.98245743627687
H         4.31479439995263    3.20869793311711   -0.68949238962284
H         5.33487387752036    4.48651742872187   -3.43628624508670
H         2.07409334151131    4.50380945227369   -3.60685263616841
H         1.01459972509237    3.20985366287114   -1.41268418089218
H        -0.90471183317417    3.05246007617276   -3.14024339782743
H         0.06766114679305    4.11515304191477   -4.12013410808544
H        -0.05163558953426    5.66026252679825   -2.31993442694343
H         1.69591414566631    1.66674328718955   -4.05449327910642
H         0.25522330452242    1.14981323727990   -3.21842728471746
H         1.43522987200334   -1.14388079490939   -0.96780029282117
H         0.44782538771802   -1.13427271306906   -2.48027219362365
H        -0.61003043645278   -0.57840002285823   -0.32103232643757
H        -0.70158256893267    0.66337159347999   -1.44548989236228
H         2.52558989268206    1.61145946663436   -0.46806575619581
