35
 energy: -49.719129397793 gnorm: 0.119906098668 xtb: 6.4.1 (79825abcba525fcdf90b791dcacef51065a7a4e7)
C         3.60681211744519   -1.44645741753409   -2.77686421911606
C         3.04676419716756   -0.08274339993558   -3.15384538912367
N         4.07333355451764    0.99374148912712   -3.03887753001028
C         3.74410721134901    1.67094412525978   -1.97688176932942
C         4.17272595609712    3.08088627369533   -1.72094424759447
C         3.55988320124658    3.91631899452049   -2.85134156890907
N         4.17804059777347    4.89014762847813   -3.44225951961529
N         2.39870121718967    3.45420080776569   -3.44809362505917
C         1.23150166865548    2.95871243481953   -2.69308140906722
C        -0.03578344814331    3.71687849057933   -3.16616119175594
O         0.08622889113971    5.12505333832516   -2.96466048065141
C         0.97059090160827    1.45624769502772   -2.93965145706235
C         1.90206325162323    0.44462048089384   -2.21238172852768
C         1.04498005155703   -0.64450470560902   -1.49578476544134
N        -0.03153417561537   -0.08159698402094   -0.66587274856037
N         2.67407646383685    1.22267216290073   -1.22334782091179
H         4.51268755394830   -1.69601569623404   -3.34200847336086
H         2.88038817741694   -2.23560878569240   -2.99752333830586
H         3.76500442619188   -1.52683990013606   -1.69943138869563
H         2.60932619825901   -0.03362150878218   -4.16029928036965
H         5.24343937323670    3.18311393949102   -1.91533925434455
H         3.82823106898887    3.51243914190566   -0.77910594583639
H         5.12872700032475    4.95553424623227   -3.05739912641335
H         2.17402528835442    3.85601010144565   -4.36131627207926
H         1.34096450697195    3.05118269717975   -1.60403273827826
H        -1.01803790767866    3.36991221650244   -2.82938505974959
H        -0.13614046679749    3.50018982564915   -4.23709247749672
H        -0.01108452327512    5.34428184935740   -2.01843840400968
H         0.98188809295554    1.40263861203913   -4.03649630929626
H        -0.07842310976107    1.33163921937271   -2.63887381965727
H         1.73990626405251   -1.34800203268337   -1.03795028732001
H         0.62194025111893   -1.16328629507272   -2.36502793800265
H         0.33928756001398    0.54448906029384    0.04469324905867
H        -0.56786602249982   -0.77197896818698   -0.13793720015997
H         2.48576714965816    1.88421194355628   -0.47290916612277
