35
 energy: -49.723000837217 gnorm: 0.117783501562 xtb: 6.4.1 (79825abcba525fcdf90b791dcacef51065a7a4e7)
C         3.59235699743986   -1.26084610310789   -1.97691785512556
C         2.84558093195180   -0.22350293322067   -2.80258675186680
N         3.89153101288461    0.77144958410499   -3.17933592590686
C         3.91984407684447    1.63988029633153   -2.20987478360515
C         4.45631390459513    3.01400404539131   -2.45713778767523
C         3.53843667873472    3.73604754712769   -3.45085644622541
N         3.93606075440269    4.38054882109563   -4.50259691994841
N         2.15419801553335    3.73521703150669   -3.40735365064783
C         1.21857712678535    3.14187590662362   -2.43243474836041
C        -0.10387587000635    3.94970044013852   -2.48873259845461
O         0.16875072831724    5.25390980103131   -1.97574268754636
C         1.01378758122388    1.65313601091036   -2.79018653734208
C         1.85212856171960    0.64813211035956   -1.94929219392494
C         0.91009795675747   -0.17646792667342   -1.01821232655226
N        -0.00908629281585   -0.88582063685595   -1.92177253040806
N         2.92555875769836    1.40645479403067   -1.27679587736797
H         3.99293513160013   -0.85611539483729   -1.03989709783313
H         4.46995290261774   -1.60690317974426   -2.53298620844430
H         3.02069281971036   -2.15320730098511   -1.71378436974013
H         2.39655218779580   -0.76779482555719   -3.64450952463093
H         5.44932788595047    3.04470786120991   -2.91282151039541
H         4.57940020757189    3.53318537754593   -1.50462820547585
H         4.96294599166951    4.41980739673098   -4.51536578892169
H         1.67196729206244    3.94751226007193   -4.28387511087479
H         1.54898451333212    3.23480228027340   -1.38900025334676
H        -0.88479395431800    3.67219418188906   -1.77334122333724
H        -0.55291532888705    3.92601303062026   -3.48959313028269
H         0.86855943543764    5.70504009487702   -2.48526844053831
H         1.26647002839940    1.41073073358106   -3.83108109914409
H        -0.04586723026286    1.36750579006913   -2.74577999700529
H         0.35877038377528    0.58758428503196   -0.47075867510202
H         1.47935834540252   -0.73680231051732   -0.26611612029052
H         0.58661920708687   -1.58807940342213   -2.35347164460110
H        -0.79940943753040   -1.33061657869138   -1.45215461639711
H         2.62385669909051    2.04228342238838   -0.54130195213632
