35
 energy: -49.717608442575 gnorm: 0.119943437244 xtb: 6.4.1 (79825abcba525fcdf90b791dcacef51065a7a4e7)
C         3.37345404592586   -1.45120261543958   -2.36613537316239
C         2.94490277880219   -0.18931586962512   -3.10062166068768
N         4.12562453914343    0.72231944117371   -3.12706375435371
C         3.93078409191220    1.62070141955044   -2.20523111088459
C         4.44017433778969    3.01361597866735   -2.01167097836613
C         3.81734253040800    3.80375786157727   -3.16885657805723
N         4.38004353388237    4.73894764993408   -3.86773599452213
N         2.45984022226617    3.71900525225413   -3.42965209523285
C         1.36076364503157    3.06346288779528   -2.69466784704333
C         0.12424012282488    3.96792638524582   -2.93464113223318
O        -1.03869111156982    3.60795333540281   -2.18868114864495
C         1.15178642706807    1.59116752214031   -3.11293380036853
C         1.87337164058074    0.54628728614492   -2.21432834427701
C         0.89402042601410   -0.28176236744970   -1.32578936031506
N        -0.04880780064059    0.75763428299123   -0.88393924611031
N         2.85931972072053    1.28221104757042   -1.39831391701032
H         4.05032443069991   -1.25007559830584   -1.52728372484660
H         3.96701965510124   -2.15120632910827   -2.96347677467131
H         2.50533156638913   -2.07146060921337   -2.13377563193746
H         2.58650144773227   -0.26490490393676   -4.13626117431579
H         5.52506623447366    2.99020926241972   -2.14254813417999
H         4.10222856209095    3.52060301609943   -1.10572904336383
H         5.40008042132891    4.74610282059859   -3.74255166819495
H         2.10673393867225    4.30025375605071   -4.19343983794317
H         1.51992241465582    3.08405097533697   -1.60801956077123
H        -0.21871790199885    3.98452046683691   -3.97422374858999
H         0.33405158528758    4.98711113819051   -2.58655936745446
H        -0.96155620090481    2.71569101624220   -1.80037016769242
H         1.64477840251730    1.63980268690982   -4.09306836028505
H         0.09923296061280    1.31062248901643   -3.25382576376819
H         1.36196877857388   -0.73559408072712   -0.45257433985280
H         0.44094473986446   -1.08257717661206   -1.92336677912437
H         0.47277618290317    1.34410688546848   -0.23710342775354
H        -0.87145687442561    0.37463557019589   -0.41537166965172
H         2.67957252807725    1.96069851931601   -0.66102213244741
