35
 energy: -49.724267046210 gnorm: 0.098008531785 xtb: 6.4.1 (79825abcba525fcdf90b791dcacef51065a7a4e7)
C         3.57082736680938   -1.52889066578140   -2.34308879418735
C         2.92454143725318   -0.29491143549807   -2.95553814734361
N         3.92067169991972    0.78458756716620   -3.21685868076104
C         3.82906181170456    1.61576214447935   -2.21906868627470
C         4.48850711011771    2.95822676317621   -2.22776154630110
C         3.81539081298244    3.89405893249595   -3.23892660258949
N         4.46199239503672    4.75643435040531   -3.95855138846738
N         2.44586667059748    3.79485343023400   -3.41940297358518
C         1.35211172374996    3.09906371782954   -2.71407768637987
C         0.02115336514566    3.84274667115841   -2.99712775897257
O        -1.14028465153089    3.30315390798263   -2.36598012350867
C         1.22819018550481    1.60551054796060   -3.08852919345393
C         1.90188257369294    0.57594427317406   -2.13664497244520
C         0.76571647122535   -0.09551630786920   -1.30444075261498
N         0.12722030061065    0.94954121988476   -0.48916203241998
N         2.91168666065425    1.21028081821658   -1.26631755411213
H         3.81079120025598   -1.44205033344599   -1.27671465874667
H         4.50900048489875   -1.70290542133978   -2.88038959407633
H         3.00563471992539   -2.45856673030803   -2.43586462252635
H         2.53139253528299   -0.73612354690026   -3.88154043773031
H         5.54996675264280    2.84070956176180   -2.46048513038561
H         4.42972377926954    3.54992245880257   -1.31211165345818
H         5.46380566439962    4.72183757316196   -3.73190010508804
H         2.13752922700431    4.49270663218200   -4.10045695389582
H         1.54316150845526    3.29121920622630   -1.64958901128640
H        -0.21083826264218    3.74230695976148   -4.06235982122890
H         0.15468902505032    4.91163205396179   -2.78838966013838
H        -0.79445218322998    3.14378346782941   -1.46716522088888
H         1.66141130126300    1.58112050700928   -4.09738736457016
H         0.16142244133589    1.35336697372978   -3.15820757503661
H         1.09632373538715   -0.92409301940337   -0.67865897459360
H         0.05269452659134   -0.57642867694579   -1.98561893409606
H        -0.51567652218076    1.54599211013623   -1.00426061580568
H        -0.47244392914912    0.53262094382173    0.22468345693661
H         2.75731910837626    1.82766621851071   -0.47179920341238
