35
 energy: -49.725208669495 gnorm: 0.104536210005 xtb: 6.4.1 (79825abcba525fcdf90b791dcacef51065a7a4e7)
C         3.64915817806968   -1.48494383302318   -2.55351279474251
C         3.13360594181217   -0.18870643779214   -3.16134416602178
N         4.18529727349083    0.86475869528022   -3.06115147148069
C         3.84716133466680    1.54304177624194   -2.00265036995132
C         4.41476159528482    2.91296375540674   -1.80694994990067
C         3.63262022264919    3.87493782760666   -2.70927080355488
N         4.19529978679773    4.85856274134609   -3.33817345372965
N         2.27433097824276    3.79147674987094   -2.96635909965812
C         1.12234036694394    2.91271040395266   -2.68601236033066
C        -0.18334968898210    3.62489412885344   -3.12487411339528
O        -0.30544349061918    4.96614739682715   -2.65097673524402
C         1.25767705621651    1.48991210569823   -3.27218684492235
C         1.91539795421596    0.40992905812386   -2.36610099721615
C         0.79933852938034   -0.44628902918427   -1.69112059939799
N         0.07484541844977    0.38285060994574   -0.71534440583330
N         2.74271461033130    1.05515457270483   -1.32745372475348
H         4.62784651666963   -1.78519987425520   -2.94631444008399
H         2.81567147610647   -2.14768189289143   -2.80889539238715
H         3.69206989275141   -1.39497689866686   -1.46612500363254
H         2.79713448913876   -0.40781342428845   -4.18383794233142
H         5.46041555921215    2.99557302799464   -2.11427816823182
H         4.20261701670988    3.20094300989184   -0.77542843689420
H         5.19422977539106    4.98340390462195   -3.13140999667731
H         1.92872934426093    4.51245505258559   -3.60405447453835
H         1.11388746418948    2.79306357686294   -1.59414557604531
H        -1.04539195119271    3.08618393727091   -2.71830055358241
H        -0.23321280031985    3.59769517861415   -4.22063559003945
H         0.55199487221614    5.43269448566193   -2.65025100630407
H         1.79506434072210    1.53951748287657   -4.22865139286868
H         0.22047645098043    1.14691018240341   -3.38615821133692
H         1.10989910796155   -1.37518533059154   -1.21347307980217
H         0.13830306135382   -0.82544630943773   -2.48039405215354
H        -0.11608075277261   -0.24503755103622    0.06163705895957
H        -0.80770453327889    0.69944050040444   -1.12015487024548
H         2.29473965390415    1.59931658381367   -0.59297456716018
