35
 energy: -49.718936788718 gnorm: 0.105145152903 xtb: 6.4.1 (79825abcba525fcdf90b791dcacef51065a7a4e7)
C         3.65524042378802   -1.51264962380544   -2.25925750698721
C         3.08773326462015   -0.26317359955554   -2.91669931072982
N         4.11539420379537    0.81307605205339   -3.02385192123177
C         3.82124745591118    1.69048738054126   -2.10817978161413
C         4.27935886827529    3.10942419102683   -2.22610851200548
C         3.58650949521907    3.73221080464370   -3.44406531004166
N         4.07687955477211    4.66631763855218   -4.19681124224414
N         2.20799534949796    3.64394877770134   -3.54365655162919
C         1.24165053029455    2.95757002473101   -2.66447006105073
C        -0.15838963585002    3.62271510514114   -2.71031096023281
O        -0.12658293753953    4.77082749994873   -1.86221177831430
C         1.19006916509637    1.48180650097735   -3.11804798772243
C         1.93496016900663    0.50132590692318   -2.16739196056093
C         0.93796236955924   -0.42705993692898   -1.40687131816614
N        -0.19480789279743    0.19466194291524   -0.70345437572386
N         2.81554345805097    1.26319735366219   -1.25982273156431
H         4.24744761960585   -1.26065759809255   -1.37152537629336
H         4.46161576556614   -1.86095089586370   -2.91315896180504
H         2.86069662528450   -2.20559832534498   -1.97488114823960
H         2.81118939444850   -0.50846663603732   -3.95114081716818
H         5.37071034689336    3.06874658036138   -2.27043021405082
H         3.97315848156215    3.71742553982150   -1.37255729466713
H         5.08717811004114    4.81537580960742   -4.08158947505439
H         1.87039412271651    4.18788496939369   -4.34119302538129
H         1.54009171406336    3.20699071654674   -1.63720083220023
H        -0.83867604512585    2.92003409100954   -2.21829735188719
H        -0.36607965038790    3.91421431566889   -3.74752472763413
H         0.33943109849881    5.53571996215889   -2.25033250594520
H         1.57451154438896    1.50753787718580   -4.14645071023521
H         0.19028456719217    1.02768158179556   -3.14307176705159
H         1.60838414158499   -0.87097276932924   -0.67139908427783
H         0.44628638098983   -1.18096830378192   -2.03421300546701
H         0.14910369826656    1.10406555736820   -0.40494738809530
H        -0.95472952254773    0.32708412953600   -1.37276638400997
H         2.37371873636063    1.92146688780949   -0.62128877505153
