35
 energy: -49.720052360861 gnorm: 0.109768504429 xtb: 6.4.1 (79825abcba525fcdf90b791dcacef51065a7a4e7)
C         3.37263531815697   -1.51206423067138   -2.65200689379306
C         2.82093163405871   -0.14259029920171   -3.02031196999839
N         4.02717693876178    0.73004365290127   -3.11708103691857
C         3.83464070973962    1.60917359728122   -2.17639577965361
C         4.59372825694331    2.89694159981125   -2.12545862711256
C         3.83128793663988    3.90944601897747   -2.98850077426011
N         4.34291753736269    4.88536007558948   -3.67075564926086
N         2.53022532660457    3.62180652653220   -3.36600502057758
C         1.34093509178862    3.11037609506174   -2.65753156361930
C         0.19692499473339    3.90784239888747   -3.33570577025767
O        -1.14847836825417    3.60995567909670   -2.96207593272242
C         1.02198682326740    1.63072834596341   -2.96605400068847
C         1.81751436218402    0.62626847854439   -2.08392702452021
C         0.89960103880409   -0.21815380147001   -1.14654626563420
N         0.17248733709192    0.60029672491746   -0.16372056144475
N         2.82155069497600    1.34289497391231   -1.27280776674227
H         3.92703382679343   -1.40552283866153   -1.71202343354637
H         4.05997587100502   -1.72434311534137   -3.47762346431190
H         2.60756942028623   -2.27796588810012   -2.50912062635676
H         2.34140748447559   -0.18078306486724   -4.00789099180885
H         5.51565732559608    2.88228682666382   -2.71239915071041
H         4.68234255343300    3.17373664201879   -1.07307751525369
H         5.36814909448846    4.95236855475184   -3.69540678868396
H         2.27938807250588    4.05285616561888   -4.25885578171070
H         1.43221453665716    3.42338920300105   -1.60860318747893
H         0.29021913080051    3.51387488580789   -4.35291440607564
H         0.44555070335456    4.97583225332533   -3.29694671329268
H        -1.19757706295984    3.66521986249467   -1.98872992567190
H         1.19346243938085    1.37824124308091   -4.02100261643404
H        -0.04343016502992    1.40854461651544   -2.81791249801206
H         1.57270996381841   -0.88314600708122   -0.60603437755802
H         0.16677430166367   -0.78492257986853   -1.73426969221810
H        -0.69967097186396    0.19804542257270    0.17083931164596
H         0.88358451663345    0.77931848294134    0.54711493069498
H         2.48664105645464    1.98627474161864   -0.55855887193365
