35
 energy: -49.720500301796 gnorm: 0.122254921144 xtb: 6.4.1 (79825abcba525fcdf90b791dcacef51065a7a4e7)
C         3.69717897111766   -1.27210745699333   -2.38129814233361
C         3.04489138665707   -0.13930559075139   -3.16024955993092
N         4.04046698547175    0.97106533732556   -3.11796891752708
C         3.68155956666751    1.64714890563868   -2.06491387859326
C         4.16791298043604    3.01683285964688   -1.71195326166227
C         3.68483473774268    3.81159242831082   -2.93109839256831
N         4.33253968216917    4.81547932603838   -3.43342718516830
N         2.39401840567629    3.61892063759427   -3.39443479994276
C         1.28853206527636    2.96454469895567   -2.66807466045113
C        -0.04183524700666    3.74687874483601   -2.81876662898034
O         0.04762109375162    5.16032487925582   -2.63817444817412
C         1.04347841526951    1.48552730219665   -3.04053644805714
C         1.85385417395071    0.39528813161938   -2.28249859110486
C         0.83429773750991   -0.67560846472083   -1.78452094385984
N        -0.09453949627712    0.01592327577304   -0.87702591317084
N         2.67077196021660    1.11445105369454   -1.28499822248293
H         4.73670389910155   -1.40534317816584   -2.70365486136023
H         3.27800684071063   -2.26560021632539   -2.57210943053687
H         3.71792201815713   -1.15125467232539   -1.29625805031393
H         2.78733964932336   -0.43654346770013   -4.18593526912955
H         5.26044654998378    3.04378439083451   -1.72959315262114
H         3.68116535912123    3.24208400685707   -0.76099969687960
H         5.32127875874815    4.84612728806371   -3.15476375850598
H         2.10968869654771    3.98328123148300   -4.30674152568910
H         1.58139265190128    3.08654409082057   -1.61645271738798
H        -0.78819993344116    3.48504980118377   -2.06179044274621
H        -0.51309521847658    3.59810290566425   -3.79840896697761
H         0.47085524560879    5.59184173335799   -3.40468166645752
H         1.28709693167776    1.46599178924488   -4.11120847916318
H        -0.03725754820237    1.29540022049539   -2.99272073341316
H         1.36748430567522   -1.58756071770645   -1.51712884529589
H         0.26347512165208   -0.85819905242751   -2.70348935462720
H         0.10544553068532   -0.11074709786763    0.11209346502957
H        -1.02867454095418   -0.37941320447287   -0.99575195597745
H         2.18284884770770    1.64778317763898   -0.56824068058278
