35
 energy: -49.726035751807 gnorm: 0.109936749438 xtb: 6.4.1 (79825abcba525fcdf90b791dcacef51065a7a4e7)
C         3.32788418241744   -1.40816311425938   -2.87666258045393
C         2.93964075659008    0.04072151574056   -3.13256258221063
N         4.01289014747520    1.06920533355902   -3.00513113238977
C         3.76271391471286    1.69722018669134   -1.89254961990563
C         4.14916061571519    3.13185616372378   -1.72040576534434
C         3.57302684800490    3.83763058756073   -2.95380535621451
N         4.19709097645868    4.60838638972018   -3.78814598207917
N         2.31887114937768    3.45434443719898   -3.39899640899904
C         1.15970456395346    3.06259246048585   -2.57390841567157
C        -0.06158885528330    3.88545750724254   -3.05967309372972
O         0.30002745126182    5.26081710061585   -3.18642321585143
C         0.87405236055491    1.55097547142874   -2.71422384896613
C         1.86503466694382    0.52633679634723   -2.09131028009378
C         1.12951114033361   -0.67695413566145   -1.42393286240456
N         0.11466956344661   -0.30801775518906   -0.42469090815294
N         2.76117582332305    1.15995648887160   -1.10388228220333
H         3.80550718214641   -1.62174054240380   -1.91305548790781
H         4.11741096673981   -1.66118742802220   -3.59204236432879
H         2.53122032177826   -2.12777845767767   -3.07623240188955
H         2.61639402389515    0.00113969769664   -4.18168566531187
H         5.19796531718705    3.43357043866689   -1.78077413006301
H         3.80622211324192    3.53611256711932   -0.76597193107396
H         5.18647993346923    4.69958993766964   -3.52548845805968
H         2.26778096059526    3.61685426735698   -4.40740403561053
H         1.31123541686769    3.30101932344105   -1.51242317710744
H        -0.89538936454047    3.96966836984129   -2.35517835942950
H        -0.45081309107619    3.58811243116620   -4.04151306192861
H         0.90664632841482    5.32160814422874   -3.94877828277773
H         0.73485489280802    1.29146566823634   -3.77221672720589
H        -0.10949060838700    1.38667580670957   -2.25370922753971
H         1.94949327723026   -1.31123040313670   -1.08812597113026
H         0.56236365920032   -1.18104906654439   -2.21634231768970
H        -0.12866460917231   -1.15969627543586    0.07513777846083
H         0.47826376756569    0.30332381409610    0.30815001759295
H         2.38119655016001    1.84483823656068   -0.45364676296066
