35
 energy: -49.716942490549 gnorm: 0.113868063443 xtb: 6.4.1 (79825abcba525fcdf90b791dcacef51065a7a4e7)
C         3.58073922023963   -1.38877755102025   -2.50995764239729
C         3.07558882170226   -0.08316039400495   -3.10633952641650
N         4.15309666048786    0.94013802789487   -2.97322604791251
C         3.70786307328433    1.73875300933249   -2.04650624496224
C         4.24856911548031    3.10933081440775   -1.78900205603091
C         3.88490411476847    3.75001955120562   -3.13383956783953
N         4.63103474292412    4.28913321458507   -4.04613906462155
N         2.53332315939791    3.91556240040830   -3.38649419940404
C         1.47617948530960    3.13099957881755   -2.71954936018657
C         0.19559300479504    4.00396540758274   -2.77113191775315
O        -0.84276829329233    3.56787043539098   -1.89359391732422
C         1.18738257812124    1.68894415919009   -3.19214225361016
C         1.85065837134760    0.55757652864558   -2.35546777567822
C         0.65410882108113   -0.30021388201745   -1.83897836093153
N        -0.07950023966556    0.37617622149333   -0.75786035821746
N         2.69606014868566    1.15687157535764   -1.30394591996268
H         3.32821927700175   -1.49034242381830   -1.44779196148773
H         4.66961434938671   -1.31856307575364   -2.60249391948945
H         3.20986464087110   -2.24969799251235   -3.06997166395753
H         2.82687476753700   -0.17355403970445   -4.17249370124654
H         5.31855925942179    3.27265107883906   -1.63696678840341
H         3.63406577075368    3.53625652708681   -0.99395860607208
H         5.60773212215441    4.46454751102991   -3.77876363485369
H         2.32571363888294    4.14469112633644   -4.36132952586612
H         1.69834656165935    3.16448633828985   -1.64433760351276
H        -0.25573533909854    3.90282077911733   -3.76345247420754
H         0.46439251024237    5.04239138910590   -2.54018249999421
H        -0.79094861634943    3.69076508358838   -0.92659914829038
H         1.39056167372237    1.58547519085321   -4.26642463102496
H         0.09773686164673    1.65121595303421   -3.05919989780207
H         0.95994830265976   -1.25480621602320   -1.41159207549958
H         0.02642066828387   -0.50440783403852   -2.71533052361991
H        -0.46358148163206   -0.23516708390152   -0.04152419657534
H        -0.84581600371749    0.98439671966052   -1.05081608108682
H         2.35381963346543    1.67869263165792   -0.49968993332983
