35
 energy: -49.716881735127 gnorm: 0.115768086779 xtb: 6.4.1 (79825abcba525fcdf90b791dcacef51065a7a4e7)
C         3.72210344410294   -1.35590872204608   -2.92591039165621
C         3.00577438658704   -0.08426888395553   -3.35636276067700
N         3.99165352924007    1.02989754089487   -3.24430252872930
C         3.72570073217563    1.51688006221571   -2.06661600297408
C         4.26423290994723    2.86854792140814   -1.72001534195212
C         3.52996210819110    3.88700087140628   -2.60031197262771
N         3.89610024409374    5.10613389897958   -2.84383269048319
N         2.39780706063101    3.50310238723174   -3.29949489512011
C         1.21011919816299    2.92330128435155   -2.64288601970938
C        -0.05587391442565    3.79349136527820   -2.85422104686655
O         0.25550628746543    5.18681870993831   -2.84294113278042
C         1.00299455428316    1.45926100052176   -3.09005150468374
C         1.82956276170923    0.33642254960824   -2.40014535031852
C         0.91813343238401   -0.65629451625826   -1.61394820471230
N         0.09490433104606    0.06259738663445   -0.62906737513966
N         2.65930109102542    0.98392227204282   -1.36485052717900
H         3.97958761425617   -1.44734496824522   -1.86401633285987
H         4.69591510374908   -1.28229821707835   -3.42130359695571
H         3.26850885791617   -2.30330844962235   -3.22429499100785
H         2.69429603280380   -0.16221338201058   -4.40689610330825
H         5.35205862605730    2.94086369652795   -1.79794331076229
H         4.17603539276291    3.12987610566707   -0.66365234929969
H         4.73278858592436    5.28600702198047   -2.27480206810741
H         2.15307778600277    4.19906365818483   -4.00776821299833
H         1.29683387171276    3.02267573842718   -1.55239751607559
H        -0.72788725714277    3.65255870807553   -2.00148213695005
H        -0.65176323282415    3.53768029197342   -3.73931761796293
H         1.19078066486481    5.40926803186500   -3.01219064494208
H         1.32883979276038    1.37413670874242   -4.13535000494535
H        -0.05140977910259    1.17062364973074   -2.98353928754892
H         1.50429450538406   -1.42291322360654   -1.10783131264781
H         0.32500752716110   -1.16581502001240   -2.38353979992206
H        -0.70684358781803   -0.42539981670767   -0.23733335971079
H        -0.20178640676148    0.94817191763535   -1.04225914772454
H         2.06442049230018    1.48854161686215   -0.71083992026283
