35
 energy: -49.721686552053 gnorm: 0.105652958403 xtb: 6.4.1 (79825abcba525fcdf90b791dcacef51065a7a4e7)
C         3.70475218250747   -1.39573598510244   -2.69495101415842
C         3.05872790116012   -0.09451938970770   -3.14768985054017
N         3.98745752231986    1.06000260665988   -2.97327004032865
C         3.66324493053422    1.66334623348752   -1.86616069937849
C         4.21893286375217    3.02365411171582   -1.58700422365798
C         3.69102400815340    3.90193141528616   -2.72773355398467
N         4.41226760433141    4.64958622926214   -3.50263016598867
N         2.40153508987757    3.66298009877265   -3.17285201102768
C         1.19956968783900    2.99757936111043   -2.63393828496984
C        -0.05616621018847    3.77082156137142   -3.11337097201056
O         0.21405157406910    5.12463498982960   -2.74920409037971
C         1.05445861705304    1.53612331017478   -3.11285428707691
C         1.85402661879392    0.47109441838232   -2.30889149347856
C         0.88692835501333   -0.60694123968525   -1.72849796188042
N        -0.07215704714726   -0.09391230083404   -0.73781209888149
N         2.64567368153433    1.01620484214354   -1.18830837894889
H         4.65970954715964   -1.47371455681733   -3.22810526925118
H         3.06215646571710   -2.26847681136171   -2.85159160986393
H         3.90233042963365   -1.29037888167385   -1.62620858129974
H         2.80819549036041   -0.02186331356936   -4.21477421184420
H         5.29764919799224    2.89843562091264   -1.71093382789959
H         3.99653394471206    3.31151602842670   -0.55761205864238
H         5.41463740173377    4.64513021691005   -3.27584282591542
H         2.17313261228879    4.23989447354481   -3.98581431747734
H         1.12954688422430    3.21904570945166   -1.56034182845306
H        -0.85251943109392    3.28846048083170   -2.53737015770069
H        -0.28036499069657    3.74484923240429   -4.18713988326056
H        -0.52809835308660    5.67381166103586   -3.06619893508607
H         1.41518996279931    1.61664478283684   -4.14700099206188
H         0.00092429556147    1.22549474940696   -3.11240181863012
H         1.50538849569324   -1.36264211569773   -1.24490039425327
H         0.37279617256495   -0.95283369900772   -2.63387480335821
H        -0.12095779972440   -0.75548918393368    0.03311659672211
H        -0.99260922516290    0.09185343666218   -1.13937649424990
H         1.98177617347546    1.38771697791220   -0.51194137832461
