35
 energy: -49.723623567341 gnorm: 0.117981031953 xtb: 6.4.1 (79825abcba525fcdf90b791dcacef51065a7a4e7)
C         3.61076882198894   -1.33782832376253   -2.83829977362901
C         2.99984986425603    0.01385006443103   -3.17775227143097
N         3.93072145899162    1.16891379541945   -3.01904546120525
C         3.60755352860859    1.67581939714065   -1.86429976277688
C         4.03491808903863    3.06951956545696   -1.52946499380501
C         3.70556041208021    3.83860924648583   -2.81451237128590
N         4.44601962048000    4.70723198202719   -3.42840120224004
N         2.44859560492663    3.59787724596765   -3.34375466444418
C         1.29640434481787    2.98943725087356   -2.65081669660132
C         0.05586056920596    3.78468564967518   -3.13378972469834
O         0.06633883157823    5.17728122586016   -2.81912527623239
C         0.99074121438047    1.52402293983708   -3.03213344855040
C         1.80186305335532    0.44781142600183   -2.25508659478686
C         0.92856329265320   -0.73033451597377   -1.72253030045503
N         0.07910201080245   -0.26566653209165   -0.61482945583805
N         2.56177557230130    1.09653595351871   -1.16823499835883
H         4.56293121215153   -1.54196127777684   -3.34227814347680
H         2.99110644350034   -2.23743402805744   -2.91491692672874
H         3.92985654101257   -1.33993094108077   -1.79401711493716
H         2.58477245030520   -0.09247320207648   -4.18924647415292
H         5.11071229362113    3.03784197870457   -1.33885939460642
H         3.44012445382108    3.47662576365725   -0.70942897182634
H         5.36990048188424    4.84198655744995   -2.99888645280946
H         2.28597926942694    3.91037165303620   -4.30386338389758
H         1.38918967311632    3.09524140837317   -1.56143327617997
H        -0.91511809776548    3.38249178612855   -2.82708447558958
H        -0.03899767951801    3.78300680291271   -4.22691296554387
H         0.91833200671907    5.52560748304439   -3.14415405643781
H         1.03265092689796    1.34541932326537   -4.11491436873013
H        -0.04324166969340    1.33560907355440   -2.71306529745227
H         1.56343490853080   -1.48167906694258   -1.25363505500465
H         0.33007177337694   -1.13175567287194   -2.54978458857650
H         0.38654147123609   -0.36305258489181    0.34973960172761
H        -0.92922662689376   -0.28585401823922   -0.77564271234741
H         1.97794286258387    1.68695263488282   -0.57933687649685
