35
 energy: -49.719769117082 gnorm: 0.110974743064 xtb: 6.4.1 (79825abcba525fcdf90b791dcacef51065a7a4e7)
C         3.60767824058642   -1.41949059118618   -2.69375509391041
C         3.04539600527862   -0.08805814754960   -3.16979161718406
N         4.05421809936006    0.99615942518628   -2.98914768456526
C         3.62007047621802    1.67141385178139   -1.96426929468252
C         4.20880034007107    3.01147171997525   -1.65637810657308
C         3.57182094592894    3.95393975553313   -2.68464530985339
N         4.14549424700149    5.02221422807907   -3.14217497948668
N         2.45946453066027    3.47929268153117   -3.35946617421289
C         1.25070023857272    2.86459366500127   -2.77727979668692
C         0.03447277224199    3.76399128542421   -3.11861028964057
O         0.19895532790449    5.08404644484966   -2.60010684520478
C         0.97317118581234    1.42101501406124   -3.25196900656484
C         1.80646223260235    0.45221568694801   -2.36483565834296
C         0.94361920288625   -0.62533410212450   -1.63772844278255
N        -0.06931531863257   -0.02241447586033   -0.75741398609709
N         2.54315212133785    1.13400251905128   -1.28224078208429
H         4.33963473677908   -1.62747178944547   -3.48322402630865
H         2.87817888631228   -2.22269630871955   -2.84151620100862
H         4.11648721821013   -1.27851026039666   -1.73793835663892
H         2.74828731106472   -0.20740212387433   -4.22059980838110
H         5.27572879368359    2.86146326702591   -1.84030275042206
H         4.03775390821335    3.35472917442767   -0.63417879663407
H         5.00572253972092    5.23350542989884   -2.62105994628068
H         2.22074494518407    3.92358233760881   -4.24914322433219
H         1.23601974979462    2.87352183896232   -1.67897899223414
H        -0.78222858964105    3.30069020595166   -2.55560176858310
H        -0.20103116229140    3.72453295705680   -4.18954458451941
H         0.96179356760450    5.58479794896745   -2.94679548100326
H         1.20873976400367    1.21703237372327   -4.30504485050356
H        -0.10504296408164    1.21156154785667   -3.25485855398752
H         1.60646496996824   -1.33213329469721   -1.13921691283056
H         0.41498766146380   -1.28606827470457   -2.33605483220501
H         0.16761389645271    0.85303055372463   -0.29713463688191
H        -0.58867304246815   -0.70128833325579   -0.19849277434721
H         1.95168852421405    1.58151277608969   -0.58498985386007
