35
 energy: -49.718525468232 gnorm: 0.111656905201 xtb: 6.4.1 (79825abcba525fcdf90b791dcacef51065a7a4e7)
C         3.64286643670567   -1.30969303375950   -2.58243551576233
C         2.89366679294103   -0.04491488640118   -2.97552657606686
N         3.90657269431949    1.04874660821625   -3.03723708762316
C         3.79825989469785    1.78628862179462   -1.96993743436076
C         4.32021696970917    3.18613108758263   -2.04174850359499
C         3.83200015041851    3.70059061673009   -3.40126971793143
N         4.42020650784517    4.45367586990800   -4.27678139153660
N         2.49172098302611    3.43297811325305   -3.62497745444470
C         1.36074025541539    3.07342610494043   -2.74775916977815
C         0.11008017375351    3.84594555327313   -3.24141380703202
O        -0.69382663726868    4.16296599287968   -2.10489374899909
C         0.97646007539606    1.57730793569529   -2.73257018445833
C         1.90360556706038    0.60946091913224   -1.94287081988536
C         1.07759665716975   -0.43454176789314   -1.12919752149412
N        -0.25601630968087    0.06848182931289   -0.76458034203935
N         2.86046643451075    1.31589599055834   -1.06827164524537
H         3.48233601944786   -1.50884985814442   -1.51620654064445
H         4.72680288662626   -1.18023182253105   -2.66882793049072
H         3.35619176053930   -2.20836621805734   -3.13248260769768
H         2.36639092150699    0.01500412590915   -3.93734999707961
H         5.39601898376914    3.03026904377973   -2.15587212008206
H         4.13235141032042    3.86601470599696   -1.20841856194572
H         5.44438933295481    4.53034577822845   -4.23978374013702
H         2.30256162403340    3.72177007237548   -4.58764226543672
H         1.61717307876783    3.49166191786707   -1.76496677143778
H        -0.34917801836718    3.20450723755481   -4.00053592974274
H         0.45113171461285    4.78546163272707   -3.69408666456805
H        -1.33958761046560    4.86523902999363   -2.31146724153027
H         0.89789783185975    1.20900617154910   -3.76419608452127
H        -0.02003867589414    1.54383018653142   -2.27181606533793
H         1.70978943294489   -0.67935930772072   -0.27606210935563
H         1.00932155100454   -1.31882094264989   -1.77500675321096
H        -0.72980174141423   -0.74637966516323   -0.38257949294493
H        -0.34641487725429    0.85714761601601   -0.12206228163134
H         2.48042573003160    1.94016077677658   -0.35967018832625
