35
 energy: -49.723842473752 gnorm: 0.105598754602 xtb: 6.4.1 (79825abcba525fcdf90b791dcacef51065a7a4e7)
C         3.68055593583947   -1.31938726452340   -2.39330520979999
C         2.99771729435792   -0.15570046338486   -3.09690231027109
N         3.93589647096216    1.00428389136760   -3.08514875333815
C         3.62127776910859    1.66687501220058   -2.00959470367825
C         4.23894799114251    3.00164113089059   -1.73749571081608
C         3.63205690733604    3.89716372532624   -2.82425451494711
N         4.00380120378962    5.07327517990854   -3.22201428862239
N         2.51001479806611    3.41995793641820   -3.48099343160053
C         1.28203597700842    2.90362224947292   -2.84587733347927
C         0.13251117019218    3.88522467490916   -3.19182707753028
O         0.35604201573190    5.09693006230144   -2.47054351468511
C         0.98885438131121    1.41846766831633   -3.15350041615858
C         1.78848857870006    0.41819288362561   -2.27033157537747
C         0.92086204599311   -0.70159648098238   -1.61642597040984
N        -0.30297642911526   -0.20796077346099   -0.96600676576704
N         2.58098524517771    1.14715530963006   -1.26032178854443
H         4.46264944649611   -1.74807947801648   -3.03113779846902
H         2.94931725807529   -2.10873221214294   -2.18991732033878
H         4.20318085559963   -1.07350023366653   -1.46661732824216
H         2.74384487015039   -0.44178495783857   -4.12666872909432
H         5.29577734816104    2.87684188336293   -1.98690302943564
H         4.07301910632799    3.32491887398926   -0.70796518464491
H         4.74024509553380    5.59351025170477   -2.72885769739002
H         2.32979388588884    4.02687200778717   -4.28416299029525
H         1.18362478153621    3.00435665502712   -1.75650700595162
H        -0.79493987514776    3.52407804786686   -2.73571824697884
H         0.08413139116826    4.19205747310257   -4.24417319724423
H         1.14472302433880    5.58414027576337   -2.77628153153293
H         1.17600301292600    1.19159115188337   -4.21159901556235
H        -0.06898145596500    1.17474898732349   -2.98614026680156
H         1.57177547059913   -1.20218188624594   -0.90006759068895
H         0.69198079461334   -1.43566013212684   -2.39901439057440
H        -0.15430404987349    0.20281156377815   -0.04755200612405
H        -1.00567296484951   -0.93801521520597   -1.09341624586228
H         1.99363919175886    1.84281501857382   -0.80498050970212
