35
 energy: -49.722308349298 gnorm: 0.104366473525 xtb: 6.4.1 (79825abcba525fcdf90b791dcacef51065a7a4e7)
C         3.43635461656447   -1.47665074129454   -2.76194992424646
C         2.84535215003037   -0.12542329435534   -3.13662969057301
N         3.95414326153621    0.87273522357130   -3.14862375570901
C         3.80325688585458    1.62585261157193   -2.09749296482743
C         4.55146516040730    2.92040146842081   -2.05898851475199
C         3.61112605582704    3.87029805796692   -2.81050766650818
N         4.07749957256144    5.00754845900042   -3.22136297943228
N         2.33553616405174    3.58582313389670   -3.26871534791729
C         1.12991015779740    2.97425666077319   -2.67680374898048
C        -0.06694974196211    3.58621814068156   -3.44988936143290
O        -0.17246565779860    5.00790310528291   -3.52814666162447
C         0.85331646360917    1.45952220751637   -2.80068678295339
C         1.84587054451931    0.49410727942037   -2.09162958306024
C         1.13922037458121   -0.55000028471572   -1.17250961571951
N         0.27252337675646    0.21567171359827   -0.26306764822780
N         2.78308134886426    1.25359198677195   -1.24052685987249
H         3.87376038554716   -1.50972800120102   -1.75703213090183
H         4.18980471104302   -1.63108484472642   -3.54144023802592
H         2.66996402400508   -2.24122541200935   -2.90484394865548
H         2.47648342229489   -0.16255292557072   -4.17068562569972
H         5.38949571129434    2.80648446830457   -2.75137198269130
H         4.81461210165945    3.34796675475960   -1.08949606186065
H         4.99445468535161    5.16084332260385   -2.78330867118137
H         2.05314248932425    4.40283791519432   -3.81520072731342
H         1.16020821217497    3.08582755209217   -1.58446961867272
H        -0.98288429932002    3.10307564664437   -3.09455176130199
H        -0.01801422949155    3.21284630575825   -4.48048051265676
H         0.45737741555993    5.34219861552141   -2.86150472216312
H         0.73917964421080    1.17115859301589   -3.85419967892369
H        -0.11689047772837    1.28847821711101   -2.31502504617737
H         1.94904556443460   -1.01805857120029   -0.61344971515778
H         0.52780250905205   -1.27271508825076   -1.72706548884294
H        -0.45150186597135   -0.31799123925018    0.21168264354302
H         0.69680169255675    0.76864900885995    0.48339005794760
H         2.38190500871489    1.98368198846720   -0.65548017322069
