35
 energy: -49.720156123002 gnorm: 0.102234887274 xtb: 6.4.1 (79825abcba525fcdf90b791dcacef51065a7a4e7)
C         3.65923094186486   -1.53239376489798   -2.45214942591140
C         3.07090317451788   -0.30659021668953   -3.13534820691673
N         4.15229978185283    0.72017047482516   -3.18252751767793
C         3.87617882061468    1.50409035313047   -2.18050193116450
C         4.49339828111563    2.85834943748601   -2.03158107332809
C         3.65028207944810    3.89767682890494   -2.78009682546737
N         4.27274523175286    4.90410638542339   -3.30857007700398
N         2.27920742778845    3.82007656210263   -2.95937960872344
C         1.15661105271072    2.92103530643262   -2.62860905945173
C        -0.14141284270989    3.65397499649174   -3.05588556077975
O        -0.26887309661117    4.99281886427546   -2.57661847958782
C         1.22935149805733    1.49416209388386   -3.21598731396217
C         1.93688759446667    0.42879987850753   -2.33035321218104
C         0.85408219535057   -0.46722704287636   -1.65288378158008
N        -0.16315058240810    0.39594072335271   -1.03265731015333
N         2.76150485583291    1.23340802897625   -1.40722316860776
H         4.55814221979262   -1.85640945762173   -2.98996913023163
H         2.94812120336062   -2.35451254740608   -2.31953821208994
H         3.99166997423162   -1.17819209792272   -1.47420610243060
H         2.62869700880743   -0.62380504260275   -4.08957192269827
H         5.49325264173024    2.96179094075275   -2.46083421678914
H         4.52470742777172    3.23808435853719   -1.00845100329945
H         5.28152618013107    4.91152452248803   -3.11234690502029
H         1.93599444810048    4.65021813203145   -3.44823073456885
H         1.00689839352217    2.79360589538391   -1.54791125117010
H        -1.01958172331234    3.07785570726658   -2.74680049796644
H        -0.41697752703303    3.83201886344490   -4.10292128624561
H        -0.47850127227604    5.00947444506383   -1.62338929448006
H         1.81576090342558    1.68304408557621   -4.12511757513152
H         0.25605980301105    1.15207544146311   -3.59295531579256
H         1.34160353519838   -1.06098147237506   -0.88008238836065
H         0.31422611105445   -1.18065009987757   -2.28791422656554
H         0.02317251386427    0.66146860161184   -0.06871997278971
H        -1.06475550837095   -0.08227673513998   -0.99508460450620
H         2.45833381154017    1.83173502795637   -0.64149109398909
