35
 energy: -49.727977747052 gnorm: 0.118214143573 xtb: 6.4.1 (79825abcba525fcdf90b791dcacef51065a7a4e7)
C         3.70568843194149   -1.31198037497448   -2.41295313257823
C         3.00394771723545   -0.13789399512802   -3.07971065505415
N         4.03859238393335    0.93266466005836   -2.98329181313357
C         3.65376418427727    1.62974698133196   -1.95333457497270
C         4.17704321281894    3.01460510476513   -1.74002268640023
C         3.58501483703680    3.91624916307350   -2.82991377568257
N         4.17680614505158    5.00105006836421   -3.22059888216095
N         2.42945738350270    3.50032936818337   -3.46999779502182
C         1.25376529827957    2.94076268547514   -2.77534662988170
C         0.11687297364637    3.89152939401262   -3.23158161617674
O         0.18122498518182    5.15752511922333   -2.57464964962803
C         0.88228899053830    1.47695134005158   -3.10020544788407
C         1.77453513951642    0.47488171971820   -2.31299202035799
C         0.93403943766524   -0.68662522323418   -1.69755301886721
N        -0.21610676844342   -0.20657140929639   -0.91575124499122
N         2.58473105178077    1.10318941221502   -1.25074488691381
H         4.53894342070824   -1.50984396124205   -3.09765292931105
H         3.18085514739595   -2.27242590768873   -2.44811677518939
H         4.10696574277771   -1.08355607591568   -1.42343480251722
H         2.77343296022191   -0.30923703996928   -4.14000256173541
H         5.26414807663602    3.05667734754260   -1.84537959674058
H         3.86125651596300    3.28915723210294   -0.73162103560112
H         5.18161742297355    5.09799020757539   -3.02784394077267
H         2.31323407872959    3.99197096693336   -4.35920321499086
H         1.28546972753421    3.13156508909443   -1.69407461894998
H        -0.91169009491230    3.58706440665999   -3.01252299060317
H         0.15947947016001    3.99422261371913   -4.32316675889970
H         1.06946154735586    5.53311343141783   -2.72576712446815
H         1.06889455653195    1.29481530522378   -4.16701144767178
H        -0.14831985278011    1.27649924605625   -2.77757679874992
H         1.50894370914314   -1.31609217982559   -1.01880432520463
H         0.50536856072129   -1.27426191882657   -2.51889649316511
H         0.02999459480326   -0.09459102732379    0.06470326708946
H        -1.03316472499546   -0.81443822252337   -0.99262332718757
H         2.15309387000656    1.55944719487767   -0.44963836872051
