35
 energy: -49.710849691555 gnorm: 0.116755244951 xtb: 6.4.1 (79825abcba525fcdf90b791dcacef51065a7a4e7)
C         3.59238744459217   -1.59770352389913   -2.66722803281212
C         3.13823239261220   -0.24962199649061   -3.20750928637179
N         4.15917186167542    0.83810060696092   -3.18691461792745
C         3.89702527382795    1.59416404561110   -2.16003797424182
C         4.31330069929780    2.98276159072226   -1.79170859828359
C         3.55346224966964    3.91953689569523   -2.73850303970643
N         4.03063843104435    4.93054330150581   -3.39410484717778
N         2.17300058346586    3.81238969577758   -2.76774143613119
C         1.07026539499002    2.88957860460100   -2.43562435432800
C        -0.23926915688667    3.69321238589390   -2.64520441862417
O        -0.11399365984702    5.10807777702208   -2.50060870661819
C         1.39409740400772    1.59785563595826   -3.21847563804124
C         1.99427089743451    0.43725652808713   -2.37422852242132
C         0.93589405955515   -0.50258744067482   -1.71785336417765
N        -0.18420361343162    0.26045442981012   -1.14544591845847
N         2.90353643785270    1.03495902571291   -1.37645857887706
H         4.49723200864217   -1.43668998927561   -2.06922415293468
H         3.94929833553662   -2.22063532508657   -3.49409722994369
H         2.85810276058811   -2.16005001708023   -2.08676262541899
H         2.74352576819917   -0.31291364907371   -4.23069806431713
H         5.37564286112450    3.16758298473654   -1.97041873483729
H         4.19478287642349    3.23144403008563   -0.73525957062524
H         5.05643487461304    4.87708940469865   -3.36121252501792
H         1.86300091740123    4.42941996370472   -3.52211498889913
H         1.15778435153598    2.71207057911767   -1.35516555594000
H        -0.92344472161836    3.42826356668582   -1.83259534357822
H        -0.68849949605464    3.58341067845472   -3.64021949668909
H         0.72329928808768    5.39362438025325   -2.91324767224899
H         2.09189649616165    1.75923441589727   -4.05100403050343
H         0.43977230686381    1.24517785372493   -3.63236797260492
H         1.41785609719452   -0.97890959951492   -0.86446414581646
H         0.55009618258389   -1.18720616596307   -2.48344980377341
H        -0.69737402381428   -0.23731397619921   -0.42206546385905
H        -0.87278822584811    0.46197694831589   -1.87224368358756
H         2.52348372066857    1.61318934684567   -0.62982405401882
