35
 energy: -49.715362314068 gnorm: 0.115662651676 xtb: 6.4.1 (79825abcba525fcdf90b791dcacef51065a7a4e7)
C         3.63392310959619   -1.33899348351715   -2.72341303010124
C         3.07198662557800   -0.00136663805103   -3.18217903566971
N         4.11292625229607    1.03875475168314   -2.93626403327956
C         3.66374163919499    1.65888677021048   -1.88341177336593
C         4.23068374782201    3.02197994497476   -1.64318569361080
C         3.67645810777945    3.80276739529838   -2.84090313896796
N         4.33993349402554    4.74824535025233   -3.42870978938077
N         2.48433579932777    3.50220146723334   -3.47848792091262
C         1.25902199583740    2.97497054164633   -2.84718721053342
C         0.01418594092590    3.85540494323553   -3.12976510566906
O        -0.25475229710399    4.71828590945799   -2.02452548932168
C         0.94886657045293    1.49524884040973   -3.16420268976026
C         1.82726839052792    0.49565105880115   -2.35849419479537
C         0.79325062520054   -0.57937430806630   -1.90086523865728
N         0.32311283567474   -0.05034380059309   -0.61105937635456
N         2.56051026809159    1.12467588151333   -1.24214253412577
H         3.61661247283803   -1.24919513876404   -1.63074918265203
H         4.65659104014180   -1.28822938785610   -3.11163383642372
H         3.03758271730681   -2.18300030287245   -3.07608609404357
H         2.95274820303628    0.05316036940525   -4.27283178164402
H         5.31206929643544    3.06218964602175   -1.79698951133854
H         3.88200991354420    3.54266993410780   -0.74915969483660
H         5.30814984684619    4.91883099929484   -3.12928502279380
H         2.38808375048606    4.08550495986047   -4.31299266297411
H         1.44204009525430    3.16980834965271   -1.78177532245829
H        -0.88641604606717    3.23666001801010   -3.19830974410966
H         0.08849745375636    4.42867178866733   -4.06237555046528
H         0.55917076045657    5.20011584870738   -1.78320324564173
H         0.92848957780019    1.47302807397989   -4.26200103512141
H        -0.08287551841907    1.25810456893182   -2.87146437281148
H         1.20472660499123   -1.56923617412588   -1.70515025457781
H        -0.04235050276843   -0.70980236442711   -2.59975004743616
H        -0.26149987296371   -0.73604947515307   -0.13943214213654
H        -0.37170544392635    0.69760678553216   -0.63921188808456
H         2.09685442031512    1.46925986616915   -0.40396678154694
