35
 energy: -49.725670124042 gnorm: 0.119675579059 xtb: 6.4.1 (79825abcba525fcdf90b791dcacef51065a7a4e7)
C         3.58498437626597   -1.31466504888349   -2.88962088646202
C         2.99401288069456    0.05922770163558   -3.17007735735005
N         4.02656482347910    1.10127289575417   -2.89830486526781
C         3.56200063837688    1.74706768793680   -1.86779158837120
C         4.10473367095715    3.11522742238991   -1.60183159807894
C         3.61869769933626    3.86834272174067   -2.84598133293966
N         4.07781902583830    5.00254512309857   -3.27310814996325
N         2.51959713745614    3.32628292360311   -3.49108518450130
C         1.31123778768040    2.88976535476515   -2.76498114704620
C         0.09248098916776    3.77540608419403   -3.13227422198694
O         0.28998732733431    5.11174137107889   -2.67005651648068
C         0.86459128957013    1.43121442958655   -3.00871798928101
C         1.77004949252126    0.41928489373802   -2.24970828075041
C         0.97063749850523   -0.78402455860865   -1.66040075068927
N         0.15247293596571   -0.11565578930940   -0.63649063834809
N         2.49682347714412    1.16567019880227   -1.20363683253496
H         3.86366265497832   -1.43346745880060   -1.83581726109833
H         4.48775833188398   -1.58953502377731   -3.44512764104142
H         2.81323852277951   -2.04912933568509   -3.12903311195579
H         2.78168560848564    0.09642662682482   -4.24722533934945
H         5.18919106625224    2.99621971337555   -1.66858835533163
H         3.81003722823430    3.57240975132154   -0.65519951067817
H         4.94535947417469    5.35051872877125   -2.84592493608063
H         2.45045377713575    3.86993094361960   -4.35455008010460
H         1.31374659104174    3.10672548814230   -1.68818873849005
H        -0.78334301881805    3.43318732400033   -2.57151917348696
H        -0.10905575649913    3.70045793602691   -4.20823195441251
H         0.81149584946806    5.61420186766037   -3.32460183313676
H         0.86625352750182    1.23226522849934   -4.08875810658634
H        -0.12354896722874    1.32647775697924   -2.54070737324736
H         1.62313420537618   -1.54993551906712   -1.24198493093026
H         0.37407065954817   -1.14940904155929   -2.50555333748066
H         0.62773633092067    0.02612255390195    0.25143962083735
H        -0.65134296328700   -0.74009114063190   -0.55309051734613
H         2.01522157579947    1.60019108725466   -0.41909577576922
