35
 energy: -49.721348237541 gnorm: 0.122485495732 xtb: 6.4.1 (79825abcba525fcdf90b791dcacef51065a7a4e7)
C         3.82635169582733   -1.39089562976946   -2.81054298420860
C         3.05176306412989   -0.11764191149082   -3.11766157816853
N         3.92502092618079    1.06454442884756   -2.86126703192679
C         3.57395739373295    1.70061914754223   -1.78099309670072
C         4.00514405847866    3.11223070225128   -1.53894800166576
C         3.65578038811565    3.78613247477618   -2.87128565890728
N         4.34421075247838    4.63901453661960   -3.56287848877341
N         2.36499667057014    3.63922447934104   -3.35118699950743
C         1.23064621929829    2.94360350947280   -2.71301187026968
C        -0.04240463406824    3.79269699295894   -2.96403698107753
O         0.21557223227740    5.14038012772507   -2.56951947611195
C         1.01197676729706    1.47313887289706   -3.13276054067394
C         1.83071397868249    0.44488268407189   -2.30070870584362
C         0.89200686093828   -0.65980068434011   -1.72382037516883
N        -0.19850328986342   -0.08821174753330   -0.91847841949779
N         2.50292319476661    1.08869798305739   -1.15476212439065
H         4.54829655439242   -1.38548894400663   -3.63579692698020
H         3.31378738725703   -2.35561582600662   -2.88627169898743
H         4.44561505553174   -1.26307767778985   -1.92030530794634
H         2.70864146926703   -0.08323168342930   -4.16063709227778
H         5.07463944558219    2.99642012677666   -1.34546759166891
H         3.52471737517791    3.63021151514817   -0.70656582875623
H         5.28040667128394    4.74467626164815   -3.15230526581734
H         2.36004470959149    3.99170850201468   -4.31120579344361
H         1.40111478114015    3.09656524942761   -1.63871998219011
H        -0.91339953967517    3.50615617400033   -2.36579804689498
H        -0.29556924076406    3.84798853473814   -4.03023107814700
H         1.08180823893944    5.48354393618854   -2.86062262027134
H         1.32020698406749    1.45232970391054   -4.18662548303225
H        -0.04840305875536    1.18690291046096   -3.12335544082795
H         1.51604081763963   -1.31142896494910   -1.11275117885447
H         0.52410891771712   -1.28876771549079   -2.54402295971989
H         0.12406916480335    0.56048643617949   -0.20466176668012
H        -0.62385150364206   -0.89052915680143   -0.45118754855108
H         1.84357406022371    1.61376981919123   -0.58396288609984
