35
 energy: -49.719324481215 gnorm: 0.106917077714 xtb: 6.4.1 (79825abcba525fcdf90b791dcacef51065a7a4e7)
C         3.39055261003366   -1.38368122724662   -2.58540974268372
C         2.86512201338270   -0.03317121126686   -3.04966166650138
N         4.01114689915693    0.92204574553316   -3.05800125943557
C         3.85872401939288    1.73484772339638   -2.05254183127817
C         4.61173661107890    3.02715874626726   -2.04484493635051
C         3.88236964147147    3.67540481615751   -3.22769027169851
N         4.52604463566151    4.47276759313392   -4.02112579921602
N         2.54853426654337    3.46012539029415   -3.53190701264019
C         1.34886308215924    3.15503792213398   -2.72840363321777
C         0.08626114844659    3.95156435767906   -3.14794366204594
O        -1.09116385972448    3.65572820322916   -2.39654677795345
C         0.94949931108932    1.67745126503603   -2.93701291760023
C         1.83372300202734    0.69781803889204   -2.11335100237364
C         0.97455965913287   -0.25384122838089   -1.22426181023211
N         0.03513217381943    0.48831656593917   -0.36917129215527
N         2.75456946438115    1.47525313044050   -1.26059461793868
H         3.71218191988095   -1.38744543155766   -1.53716449366683
H         4.14758584581350   -1.71242649984598   -3.30511059116738
H         2.59908928138207   -2.13591930330385   -2.59385646402474
H         2.38214272633273   -0.07225923445715   -4.03552046442143
H         5.66059067223026    2.91580395173730   -2.33150226414312
H         4.44060744356396    3.68167779737475   -1.18793558501296
H         5.55328075985871    4.44144908200676   -4.01949415960924
H         2.36305812202184    3.87369632592387   -4.44867486082095
H         1.59574015940331    3.35226657633213   -1.67639961107372
H        -0.28865520278397    3.70468247512996   -4.14649995055276
H         0.25648577969943    5.03459843870197   -3.19244177831872
H        -0.92772367342107    2.85243404604627   -1.86657219089137
H         1.03149864530139    1.42541962989559   -4.00276447764657
H        -0.07718048602814    1.55871017971193   -2.56518763710679
H         1.70504201570849   -0.84225601190075   -0.66963856668058
H         0.44094219259701   -0.96271585440427   -1.86957559531417
H        -0.46787323596879   -0.15779216177966    0.23409117949844
H         0.58729655463521    1.18125144818327    0.13871731110087
H         2.22106521511842    2.17326170316720   -0.74638576047903
