35
 energy: -49.720917300042 gnorm: 0.105813070554 xtb: 6.4.1 (79825abcba525fcdf90b791dcacef51065a7a4e7)
C         3.29325510662496   -1.54643179572121   -2.64829325901045
C         2.88744179869486   -0.18214365348726   -3.18636191977873
N         4.01824140487512    0.78795254912181   -3.26438517453230
C         3.92153101213616    1.56088053166595   -2.22128504675016
C         4.62418837088453    2.86305695262916   -2.00273488526893
C         3.87765147963488    3.92544487219528   -2.81841667923694
N         4.49676199787059    4.64825762790573   -3.69812612965293
N         2.50199437341489    4.05001586264309   -2.91871348626526
C         1.32886311448214    3.21190021871401   -2.60370207896916
C         0.06876778826051    3.97063916617617   -3.09472836905980
O        -1.02351813872577    3.91684063941514   -2.17687046621909
C         1.21088860246571    1.73811605165723   -3.05126634874098
C         1.90116542961519    0.60151076850580   -2.24405012095262
C         0.96663053999415   -0.27477298394970   -1.35350651566910
N        -0.29193074284465    0.37264104363052   -0.95178452993523
N         2.91885646828771    1.18289642622944   -1.34635716291695
H         3.90378888459268   -1.55364706716865   -1.73753855604785
H         3.82722599129308   -2.09175521964311   -3.43355725409194
H         2.48922215739731   -2.23153289264806   -2.37167950108240
H         2.45305598892533   -0.24307639857907   -4.19349180379653
H         5.64403566262627    2.83703408629801   -2.39503765854908
H         4.58246608794353    3.20827148336400   -0.96781450536529
H         5.52257142345183    4.62630017142517   -3.63955598735777
H         2.35635980037741    4.62654819591800   -3.75076315349043
H         1.40802054301651    3.10969390428316   -1.51290059811064
H        -0.23211683544401    3.61282208467331   -4.08470966912176
H         0.32276922283960    5.02777824868131   -3.24257817403650
H        -1.47558644984991    3.05203966850381   -2.15195495737756
H         1.60927985207365    1.73018030193299   -4.07463903476582
H         0.14617645844467    1.48932851532110   -3.15575408449441
H         1.58325204152588   -0.66129090199202   -0.54244228244838
H         0.69496599702209   -1.18345569777402   -1.90502697603671
H        -0.00556399750268    1.15826578818984   -0.37283341886165
H        -0.74127457541255   -0.22317351657990   -0.25458282502461
H         2.54894021142258    1.95011675522996   -0.78887314158607
