35
 energy: -49.725732041338 gnorm: 0.104574278770 xtb: 6.4.1 (79825abcba525fcdf90b791dcacef51065a7a4e7)
C         3.43001892656949   -1.48400545730551   -2.47511689912098
C         2.99926148385614   -0.14144600206436   -3.04736386557482
N         4.12920693055601    0.83246667626867   -3.07184634070877
C         3.98218503682005    1.66188813280283   -2.07923713114454
C         4.48553490638348    3.06511135221333   -1.95775270875474
C         3.77979780573665    3.76028967569625   -3.12821605206972
N         4.44978096147333    4.13331994930940   -4.17302024722794
N         2.40629165086895    3.89051081739553   -3.24876952649870
C         1.26285360779732    3.16652968395835   -2.66029035585815
C        -0.01696493226509    3.89828981202799   -3.14114735893514
O        -1.21239652407341    3.49198931410040   -2.47458215457340
C         1.09897671920928    1.68264171723342   -3.05714349749986
C         1.92136861092737    0.65697978083033   -2.22549400880705
C         1.05202548030725   -0.21508339260469   -1.26734739717787
N         0.25852577049840    0.75478099962791   -0.49648861341053
N         2.83984450397856    1.40345273591100   -1.34303317389851
H         3.56618260229310   -1.44647994977947   -1.38776738150783
H         4.34901400674326   -1.77133334121583   -2.99668454948220
H         2.66028926511428   -2.19234014555425   -2.78836742010845
H         2.52251942738567   -0.41412252597542   -3.99872024108203
H         5.56269382633565    3.10615784866104   -2.13861451819771
H         4.32755728292685    3.43618330000513   -0.94319730007364
H         5.46653336809806    4.16107869899856   -4.02590952773049
H         2.18253080808655    4.34267043025574   -4.13836964431086
H         1.38419187622439    3.25097839790746   -1.57184865761944
H        -0.19397387304270    3.73032557182706   -4.20842588042272
H         0.10661756713585    4.95922547368401   -2.89002543202572
H        -1.34692843542736    3.85190308157340   -1.57723578688500
H         1.29971581002506    1.54385911452451   -4.12789716675853
H         0.03358598244615    1.45295110364213   -2.92072619618489
H         1.73898887757819   -0.69443294701426   -0.57039067902424
H         0.52416853487173   -0.93698359676298   -1.90288485076756
H        -0.59923739947390    0.89904684989860   -1.02358087407932
H         0.00857652945354    0.25382428552095    0.35765589259893
H         2.51647465438466    1.95316007225763   -0.54961823068180
