35
 energy: -49.720128685583 gnorm: 0.112568077200 xtb: 6.4.1 (79825abcba525fcdf90b791dcacef51065a7a4e7)
C         3.65454170830789   -1.39199000746276   -2.58464848512831
C         3.02337549451674   -0.09986454339663   -3.08216773912416
N         4.02008383033751    0.99100530055691   -2.87611565692918
C         3.70578106777989    1.69892349603503   -1.82974382923747
C         4.21894559335075    3.08298187743267   -1.58849814283586
C         3.70235285738752    3.74566719375034   -2.87119151592198
N         4.37405194513744    4.65785098650399   -3.50078333387060
N         2.46260974403834    3.39597571558545   -3.37987874516503
C         1.19050993374362    2.98644147408499   -2.75381906432468
C         0.04400421584523    3.86539746100150   -3.31737281546396
O        -0.06285021138565    4.92138231704823   -2.36242565487449
C         0.92633061130241    1.50303492236926   -3.09438595672178
C         1.80752633744168    0.50588066778373   -2.28870045172237
C         0.90853083034394   -0.64003970709178   -1.72926314227622
N        -0.10986452379835    0.04274420218268   -0.91613399534374
N         2.52509642697438    1.27082610808358   -1.24970644615745
H         4.67768060531019   -1.37554102329638   -2.97859506416539
H         3.15788318889337   -2.32612262736005   -2.86725887226159
H         3.82736657034371   -1.44888662271650   -1.50796747485968
H         2.82504017378843   -0.18255285159368   -4.15945142667671
H         5.31168502522272    3.10531060693836   -1.57905956913766
H         3.84360212786458    3.57543607897749   -0.68928730653604
H         5.17926634178800    4.85137800467670   -2.89219920706041
H         2.49303745261473    3.73828361585988   -4.34310511641548
H         1.26550258544950    3.16765962318248   -1.67303418823441
H        -0.92368303796052    3.35334897330222   -3.32128619957222
H         0.21466757453716    4.24984905336904   -4.33077811969500
H         0.50256543279640    5.63985796291801   -2.70442734766168
H         0.98725713118931    1.43485019540301   -4.18878487340170
H        -0.11038188771875    1.26539554469029   -2.82019700039212
H         1.56536448377604   -1.21770515444973   -1.07940504876437
H         0.57147117650515   -1.30133496998062   -2.53719882081327
H         0.27710024262961   -0.06004135342820    0.01879377736086
H        -0.98385785159156   -0.48068759714654   -0.98789680005598
H         2.01243829085844    1.85223059025190   -0.58985500575639
