35
 energy: -49.729520308997 gnorm: 0.098616681208 xtb: 6.4.1 (79825abcba525fcdf90b791dcacef51065a7a4e7)
C         3.63843393683634   -1.37880009360848   -2.88403998677226
C         3.13002503710537    0.01512041023192   -3.22166474331864
N         4.17832340586817    1.02581024031184   -2.89692083208583
C         3.71263147578976    1.63266867286671   -1.84350624125468
C         4.19348525227432    3.01877530487020   -1.55257154560174
C         3.55645077554971    3.84737508322268   -2.67459279049496
N         4.18303626792297    4.74610988828565   -3.36691582822323
N         2.23734205348313    3.71090574203841   -3.07376461867002
C         1.09087726579810    2.95437160129696   -2.53415218262028
C        -0.10640545256599    3.78402842567879   -3.06595618430204
O         0.01615989147719    5.19565265446469   -2.89062582882829
C         1.06086976636772    1.52586530483063   -3.12129856745629
C         1.89835606354124    0.46427411456081   -2.35214802525997
C         0.95927255354705   -0.62947279730246   -1.75537634669971
N         0.16658188969587   -0.03947253966078   -0.66540240602919
N         2.62720775109952    1.05312633103701   -1.21127763678086
H         3.68300636081363   -1.39732634687069   -1.78861871460687
H         4.64099532562169   -1.52997055233833   -3.29775515122628
H         2.95999491239375   -2.11415252371965   -3.32144707837924
H         2.87945132767948    0.00497030903737   -4.29116192258897
H         5.27820637310623    2.93930698743088   -1.66088599089952
H         3.99475461207490    3.41119917502764   -0.55333001636915
H         5.18268193331822    4.81408222747137   -3.13825478561421
H         2.02713137921634    4.11606417067238   -3.98894969389141
H         1.14097511937526    2.97375664788178   -1.43703126104012
H        -1.06876416113032    3.51938862381773   -2.61600164452762
H        -0.30571313373915    3.57630105020846   -4.12475036517955
H         0.95783316178845    5.45277819429647   -2.89289945799320
H         1.50792135469920    1.74133361209793   -4.10098653432681
H         0.01875383751368    1.20758276893570   -3.25955735189094
H         1.54059736526814   -1.47842463865910   -1.39650924428605
H         0.35542367485842   -1.08636766543411   -2.54928712532250
H         0.00397294789634   -0.75762551343873    0.03617523001236
H        -0.77761505410692    0.14076253650430   -1.01036984751365
H         2.18155728169023    1.40482181906071   -0.36631644149612
