35
 energy: -49.711607258631 gnorm: 0.126175675904 xtb: 6.4.1 (79825abcba525fcdf90b791dcacef51065a7a4e7)
C         3.56042129698470   -1.35034620080306   -2.59755371827848
C         2.78099692654763   -0.15049640998743   -3.11557165647778
N         3.80766889024933    0.92770440271210   -3.21205846541771
C         3.82713870725746    1.58176089799128   -2.08659879847081
C         4.44059717882677    2.94574260097235   -2.10602972433919
C         3.75312148118518    3.72869672752276   -3.23105514455548
N         4.40972702617364    4.64636088660031   -3.86855530745450
N         2.40676322192556    3.52831242674650   -3.48634989957883
C         1.25365917635978    3.09842920141282   -2.67182030533920
C         0.14070804538069    4.00628276742541   -3.25643429823609
O        -1.18897636037398    3.76863181396897   -2.79393309752565
C         1.00251915880833    1.58688710943546   -2.86788341714399
C         1.82872902943058    0.53800696816041   -2.06964824705098
C         0.99545423810546   -0.38301628351040   -1.12536764098197
N         0.53479974427496    0.59438323798224   -0.12687397280110
N         2.85888174510049    1.14220585949369   -1.20172772502111
H         3.93684977384797   -1.24711927907422   -1.57289597737132
H         4.46229596759366   -1.41868268005116   -3.21488206555634
H         3.02281414772945   -2.28893630668825   -2.74713591555922
H         2.50562934609715   -0.39465134086236   -4.15059604303231
H         5.51572660068827    2.89982242546938   -2.29748520952710
H         4.21724371202394    3.48501092318405   -1.18338303427897
H         5.41660495511092    4.55548854738980   -3.68379432336201
H         2.23204777168541    4.28265890009491   -4.15443785925661
H         1.43034400362610    3.37688947958996   -1.62405972762401
H        -0.00510469494789    3.68759268886482   -4.29364347541847
H         0.46621997575145    5.05236660081429   -3.19585438581205
H        -1.17909537933789    3.94254806069498   -1.83345261045495
H         1.23802026124966    1.59077574860287   -3.94054101883334
H        -0.06765687023239    1.50734041888023   -2.63374571012895
H         1.73378689084150   -1.08083860367517   -0.73122011518436
H         0.13188446177995   -0.83070747644748   -1.63281275779049
H         0.06477817589815    1.37470296275523   -0.57917629841460
H        -0.14895541855719    0.16043120121120    0.49534752732449
H         2.50907455188689    1.68816963965693   -0.41699085206372
