35
 energy: -49.720563154397 gnorm: 0.111639816990 xtb: 6.4.1 (79825abcba525fcdf90b791dcacef51065a7a4e7)
C         3.66197550656401   -1.35485634670878   -2.96200534373582
C         2.97910499974174   -0.01048894080102   -3.16657467882101
N         4.00446125053270    1.05421192539897   -2.96424167310399
C         3.64969756187452    1.68018442726709   -1.87928564305798
C         4.22254511028334    3.02375226246328   -1.55706503952986
C         3.68839068603372    3.86932196325298   -2.71939594464497
N         4.26901761163470    4.83237776515687   -3.36363247334583
N         2.45297742309330    3.46065656269382   -3.19348086643430
C         1.17741901121180    2.93325078274244   -2.67127318173957
C         0.03014047469087    3.76656294178460   -3.29894718418439
O        -0.08487431278762    5.03103175093001   -2.64600293472651
C         0.96357988238189    1.44614678232584   -3.03053087624142
C         1.81703605313943    0.43983942787730   -2.20657104216054
C         0.93466675430429   -0.69559290624449   -1.60116669204899
N        -0.08590467150139   -0.00063885725582   -0.80118242681234
N         2.60736426151958    1.12090302253837   -1.16201818633298
H         4.25819598234181   -1.61096839517638   -3.84586361836446
H         2.92224907033063   -2.15051702250399   -2.82463368209477
H         4.32202927385458   -1.29164901456680   -2.09443314004037
H         2.61262885489335    0.09945845862798   -4.19629368754396
H         5.31351810371633    3.05443590264782   -1.61625617285906
H         4.02353409648003    3.23801762156206   -0.50518150618301
H         5.20053604586560    5.09844421536540   -3.02058784851490
H         2.27951100172855    3.82210859428513   -4.13431423955621
H         1.07122503775324    3.02620103582647   -1.58194174264028
H        -0.96730639099478    3.31697253213940   -3.25899961722249
H         0.27485834190765    3.91631180499870   -4.35800704089081
H         0.80097296918342    5.32512210327129   -2.93175233852767
H         1.12822196164905    1.37053045428884   -4.11369539757125
H        -0.10372507259642    1.24469347243455   -2.86712468029965
H         1.50894653062580   -1.50456459259931   -1.15037747966914
H         0.51643222077513   -1.12923008531300   -2.51807420901711
H         0.28504689449068    0.81069278690182   -0.31278459786211
H        -0.52769567124438   -0.60310790165010   -0.10487297692161
H         2.11935697847033    1.46249567104631   -0.33653842393841
