35
 energy: -49.729023462432 gnorm: 0.097333982283 xtb: 6.4.1 (79825abcba525fcdf90b791dcacef51065a7a4e7)
C         3.66059606112649   -1.40510636234339   -2.49778061094677
C         3.07239957042168   -0.16089017514489   -3.14696119016502
N         4.01396048772308    0.99535477152353   -3.09753780072301
C         3.68777700341652    1.64808779969962   -2.01940406320719
C         4.27479761168162    2.97310225322658   -1.64940615810011
C         3.62023238719863    3.88792262335839   -2.69150511310798
N         4.22602624983459    4.89301175756744   -3.24146368724747
N         2.33373788449009    3.69550713755785   -3.16681343289111
C         1.14401507068810    2.96194590970285   -2.69315268438680
C        -0.06938549438875    3.75378259087471   -3.24567921887881
O         0.09438208039718    5.10805908682812   -2.82429896574676
C         1.08637591537201    1.47156103401710   -3.09527477112288
C         1.87073648373277    0.39215386897803   -2.29551833146545
C         0.87437937702313   -0.63499581193118   -1.67380086097285
N        -0.16764712067250    0.06792913931505   -0.90922302607954
N         2.68259751948423    1.06964361743372   -1.26525319291366
H         4.60939340178215   -1.66079422428510   -2.98428344554747
H         2.94992818145168   -2.23296005913137   -2.40423114178939
H         3.93642628417659   -1.12346585113463   -1.47947614697349
H         2.67054623531827   -0.40460146689513   -4.13985248713308
H         5.34679873025215    3.01335736828998   -1.85883459851780
H         4.18776628283484    3.20184532866275   -0.58541549193966
H         5.24007978399347    4.92920679309298   -3.07842101593193
H         2.21099084811735    4.26464820960202   -4.00759711119153
H         1.13737305599380    3.10232656083875   -1.60374502945790
H        -0.99477454686954    3.46808931494213   -2.73512848884718
H        -0.08669784648146    3.64967617745896   -4.33782457022589
H         1.03507571891548    5.34606139627545   -2.93068336667561
H         1.51942060299317    1.45272989680834   -4.10432774634869
H         0.00452069052617    1.30744560260201   -3.19056520802556
H         1.31336145649618   -1.30163509599472   -0.93195845358694
H         0.42929104869725   -1.21799010533873   -2.48970204577665
H        -0.06998557213588   -0.29533538236599    0.03570959026491
H        -1.08836202670809   -0.14058261177773   -1.29884078357025
H         2.23562967052731    1.57236146146521   -0.50121916509813
