35
 energy: -49.722382517393 gnorm: 0.109828112361 xtb: 6.4.1 (79825abcba525fcdf90b791dcacef51065a7a4e7)
C         3.59499671343581   -1.36299123104078   -2.72041565635532
C         2.95714956407545   -0.04701394976644   -3.14093825598486
N         3.94095517715092    1.06705542777819   -3.01110011086809
C         3.63620348678780    1.66284146223674   -1.89441132934970
C         4.26281970257869    2.99822602698239   -1.64691361890653
C         3.64182429586031    3.96273017232014   -2.66446884032013
N         4.17914520005169    4.98872221827314   -3.24607984757570
N         2.44904944766357    3.59945091744195   -3.26723426694025
C         1.20362196936195    2.98400856005100   -2.76919007869886
C         0.11659153761763    3.83792895334164   -3.47191094083081
O         0.13953000319975    5.21195585376945   -3.08465152597406
C         0.89219185642480    1.47120778516778   -2.79595865772172
C         1.80849322410143    0.38799299147563   -2.15800164523810
C         1.09061105652447   -0.81419604551800   -1.46975513994750
N        -0.12877206988277   -0.33422269282194   -0.80100081761126
N         2.63030194286382    1.07945070493108   -1.14504873393573
H         4.51819876876317   -1.43834468252874   -3.30718435705703
H         2.94795674902508   -2.19360210990032   -3.02135906429833
H         3.85653476223424   -1.47624400669043   -1.66631920780684
H         2.64204922204927   -0.15266598063167   -4.18796444379078
H         5.35503394888367    2.95863231240072   -1.65985605751689
H         3.97540615974346    3.41679182762238   -0.68038884957879
H         5.16350242564924    5.16819132483365   -3.01149670074424
H         2.33494819111469    4.24008830363580   -4.05620209445596
H         0.98738683230639    3.32126695858406   -1.74641981444972
H        -0.83871813357010    3.52806353438574   -3.03602741764127
H         0.22128280875793    3.78906122777725   -4.56304384131550
H         1.00946203876040    5.60917105706559   -3.28036967725950
H         0.80023981505810    1.10069965255546   -3.82568616596610
H        -0.10728646729948    1.46327058822510   -2.34054132977512
H         1.81392809910759   -1.17816029569911   -0.74051866104539
H         0.89896651040864   -1.63347511690102   -2.17383956215849
H        -0.40704148105675   -0.76979391354745    0.07492177132795
H        -0.90262633170221   -0.43279521070731   -1.46011243590848
H         2.25229538915608    1.73862716390675   -0.46766337477753
