35
 energy: -49.726697044428 gnorm: 0.110160351637 xtb: 6.4.1 (79825abcba525fcdf90b791dcacef51065a7a4e7)
C         3.57982710835984   -1.44900364751315   -2.59765692534763
C         3.15943485343434   -0.09428421153318   -3.14855622572903
N         4.24126952197213    0.92105230984466   -2.99168847421280
C         3.80625725534363    1.65024197428990   -2.00483733686278
C         4.18739594869909    3.03539178535573   -1.58860636333707
C         3.62467074398964    3.85221043943327   -2.75799500571127
N         4.23461369920503    4.68650980186132   -3.54001735985237
N         2.31916352251086    3.68605662073915   -3.18933433978785
C         1.17663271325121    2.94055759366805   -2.62651866262855
C        -0.14639204262436    3.69354980084647   -2.92188287460860
O        -0.15525278362733    5.05541826930045   -2.49330184457190
C         1.12171367648225    1.49433219672453   -3.16659967427884
C         1.90875007212137    0.42909291857177   -2.35063971860155
C         0.89457695256131   -0.61958706691504   -1.79744924426610
N         0.04972409821224    0.08555938235576   -0.82097901396870
N         2.72954295916710    1.10656767363508   -1.32746627025236
H         4.57340110020269   -1.71101034332751   -2.98033289025700
H         2.84702515504160   -2.17968916274315   -2.95576592580365
H         3.48495531857373   -1.34953119665267   -1.51439691805760
H         3.03109793616223   -0.06646296292070   -4.23918449545971
H         5.27690383993231    3.10508497925922   -1.53585654064659
H         3.65946293141749    3.39517330878074   -0.70327141032426
H         5.23082590079307    4.79803964631652   -3.31347838995708
H         2.20272362412734    4.23007348848574   -4.04746776769705
H         1.28606534850206    2.98583971569666   -1.53448666012637
H        -0.91300109101535    3.21041781504698   -2.30745497991558
H        -0.39986526555650    3.64747854974921   -3.98844186536388
H         0.56324571301176    5.47521314081266   -3.00359532438173
H         1.52743668757842    1.51089043375294   -4.18698433945454
H         0.09833214933677    1.13624232141219   -3.34234592240171
H         1.39006796158208   -1.31531309133357   -1.12076814124644
H         0.34637266276316   -1.04188571470433   -2.64881086347891
H        -0.69326616492311   -0.51970413194552   -0.48036473994986
H        -0.29364056429207    1.01344915222665   -1.07419110985004
H         2.39351753358519    1.50704524393737   -0.45399154669799
