35
 energy: -49.724073570333 gnorm: 0.099547505744 xtb: 6.4.1 (79825abcba525fcdf90b791dcacef51065a7a4e7)
C         3.59856541594225   -1.36750493437645   -2.64571921211748
C         2.89885759499336   -0.05873893428831   -2.98191106171873
N         3.95365452014023    0.98337021034885   -3.14711994745618
C         3.86389332932782    1.75832498818295   -2.10490286560560
C         4.37405013526497    3.16422334755240   -2.08633453602986
C         3.61988679036073    3.76872358852234   -3.27677114055558
N         4.20004562848646    4.30363690121037   -4.30484131617667
N         2.23831993594018    3.68605646731901   -3.32625863966286
C         1.22871197200915    3.03562984752671   -2.46862006148332
C        -0.06298272612075    3.76531757096310   -2.91996525717263
O        -0.08536658755162    5.14496272354159   -2.55318987566250
C         0.90979532590557    1.53119888259386   -2.61439783550876
C         1.90373764160977    0.55144499533062   -1.92729328862885
C         1.22869268440166   -0.46133461254050   -0.95113331092176
N        -0.23549435101917   -0.37661186298398   -1.06723820642893
N         2.89520911120250    1.36687953176382   -1.19817891012752
H         3.98375399349033   -1.29450088940086   -1.62171830883979
H         4.36669651570523   -1.52547105163295   -3.41002504135954
H         2.93006348036856   -2.22554793752975   -2.74171416626560
H         2.53341162822533   -0.23304882021959   -4.00307692530106
H         5.45580244708938    3.26088873160569   -2.20935841094753
H         4.11992961055085    3.80990065595912   -1.24342435257800
H         5.21269853255012    4.31592025506751   -4.12996768596450
H         1.87577256125523    3.96785337936545   -4.24007234771153
H         1.36936306505147    3.31050078312313   -1.41447438175796
H        -0.91342871516686    3.28908011324503   -2.42140021273223
H        -0.08788984697931    3.78655141695767   -4.01670957353758
H         0.48023136333029    5.61969544742703   -3.19162159531380
H         0.70885544641333    1.31993807356612   -3.67320009755801
H        -0.04858854102551    1.34925902928870   -2.10959774899331
H         1.54311183620792   -0.23587541892693    0.06756787376723
H         1.59109999242327   -1.48375628388269   -1.11543658413449
H        -0.61672734260559   -0.99467944398547   -1.77931292652297
H        -0.66184543586014   -0.34033887777585   -0.13992806111380
H         2.66937725032569    1.95132461357231   -0.39588383151753
