35
 energy: -49.721566662254 gnorm: 0.110369692690 xtb: 6.4.1 (79825abcba525fcdf90b791dcacef51065a7a4e7)
C         3.58339746290597   -1.46088837705978   -2.70993328791834
C         2.93644889711949   -0.15829570838047   -3.15736411359184
N         4.00820785023553    0.87844735217309   -3.20613481225864
C         3.79115632047981    1.62062145372404   -2.15880742550265
C         4.41663786886563    2.96255634175088   -1.94634914846948
C         3.60097248748614    3.99308299028311   -2.73630294369326
N         4.22238087434443    5.09702008749274   -3.00983409942955
N         2.36618422546622    3.61321698042385   -3.23531153388333
C         1.16954930334352    2.94009757350465   -2.69412573116115
C        -0.05952303096277    3.57325222684119   -3.39635661842953
O        -0.04274701116787    4.97877998781680   -3.14604432958964
C         0.95918751709964    1.43362977057329   -2.96352173786371
C         1.84742421104806    0.42328270949743   -2.18237765043717
C         0.94475942606134   -0.60672920937590   -1.43500338535577
N         0.17054819931218    0.17700200201227   -0.45988065089280
N         2.75477842261570    1.22122118434759   -1.33410913639289
H         4.49439547857491   -1.47353743845272   -3.32001549828642
H         3.00028546540710   -2.37330531446872   -2.87308294359499
H         3.95119554181605   -1.41476743141105   -1.68282808441781
H         2.63906333495251   -0.37046895839207   -4.19334614041991
H         5.43658575493482    2.96465103629115   -2.33924743238318
H         4.41088911698727    3.31779820567081   -0.91400028805990
H         5.18344729572488    5.21596285627249   -2.66573889672859
H         2.11414616737359    4.45552519113554   -3.75770918324849
H         1.12321767247332    3.21006869284275   -1.63039227886907
H        -1.04021483819486    3.19577573856025   -3.08913899176427
H        -0.03858199432673    3.46900414865270   -4.48842490440130
H        -0.31223169787319    5.20439860864357   -2.23536244084719
H         1.01969867651675    1.30528403949717   -4.05252861550097
H        -0.08162197232734    1.26509478462432   -2.65572887342196
H         1.45742559707473   -1.46678214291606   -1.00497349825575
H         0.34975343453382   -1.03428807208020   -2.25160733086893
H         0.53529342225809   -0.04730657592479    0.46263933519803
H        -0.75656545526163   -0.23492160930017   -0.34251670003008
H         2.22721092552889    1.83104569335830   -0.71278789099341
