35
 energy: -49.728507741894 gnorm: 0.113950375034 xtb: 6.4.1 (79825abcba525fcdf90b791dcacef51065a7a4e7)
C         3.66857732178129   -1.29944921252921   -2.70458674343545
C         2.98658217039160   -0.01011701891864   -3.13816436801673
N         3.84580948687861    1.20331033002260   -3.01485786464130
C         3.59333733256166    1.76219614453148   -1.86649691337828
C         4.04825951702563    3.15720960605130   -1.57643110365881
C         3.69650871597345    3.91762537419418   -2.86070577539495
N         4.48338945100394    4.59041591483095   -3.64033158652396
N         2.46095774951844    3.55112863965824   -3.36775982118533
C         1.27792894134002    2.98132827030227   -2.69420406741642
C         0.08005994436338    3.82648595147752   -3.19962488279788
O         0.11202477305452    5.10815599255195   -2.57133663732527
C         0.94927342445996    1.49401917170100   -2.95143689332048
C         1.79087258666252    0.41663655233632   -2.20920429817386
C         0.95434740086597   -0.76906741810611   -1.63594322222962
N        -0.24403264497011   -0.23962391079858   -0.96655782165877
N         2.61128433328340    1.07651782469082   -1.17429453627944
H         4.56876759082098   -1.20340541595680   -3.32322295064831
H         3.04543614645261   -2.19755036702398   -2.76979005100521
H         4.02884035918583   -1.17479804409416   -1.68134664506838
H         2.60707187456035   -0.13078201022439   -4.16194477301880
H         5.11466038868212    3.13658061421548   -1.33761996422686
H         3.57721343062473    3.61243352670604   -0.70301209642855
H         5.41208934771019    4.66612488429458   -3.20676241923660
H         2.29713523124037    3.57492410140013   -4.37696819973500
H         1.38744283998010    3.20475880642917   -1.62432305204915
H        -0.83042721528552    3.34750577530750   -2.82516698077064
H         0.10408063932428    3.91535023598085   -4.29298917532826
H         0.91569279485040    5.61067721793034   -2.80469770828556
H         1.09051058505381    1.40303541128869   -4.03672221573071
H        -0.07148505073607    1.28455420410721   -2.60415971397710
H         1.64375209608897   -1.28380034154828   -0.96720220736964
H         0.70043566296934   -1.41507315338927   -2.48558204364126
H        -0.07669361774597    0.19169534368543   -0.06082171887484
H        -0.84653839560488   -1.04471464355451   -0.78820194391167
H         2.13654996647840    1.55283292500886   -0.41009254406730
