35
 energy: -49.716696824064 gnorm: 0.104477290691 xtb: 6.4.1 (79825abcba525fcdf90b791dcacef51065a7a4e7)
C         3.56335040748181   -1.56176037372157   -2.64282061616948
C         3.05073763672125   -0.24120674264731   -3.19856399785599
N         4.07825028507066    0.83917006885330   -3.14484518628206
C         3.82794613398228    1.58573970724980   -2.10811474020616
C         4.27442317807959    2.96155377502023   -1.72739328821889
C         3.57680495213361    3.96339848324050   -2.65527160117540
N         4.19736839453956    4.96523547531005   -3.19459382178364
N         2.35176191378590    3.66740214440469   -3.22943669483628
C         1.17122998063510    2.90517240109256   -2.77859620689369
C        -0.12634305846312    3.64981007806716   -3.18657997904244
O        -0.18840055408626    4.80703463028438   -2.35265782258435
C         1.27377756033766    1.46175639593216   -3.31924931856318
C         1.94265229990202    0.46292962004481   -2.33187737018887
C         0.91478946668695   -0.40062177394787   -1.53684683366189
N        -0.09474990662999    0.35448763721143   -0.77846566161097
N         2.79342296656105    1.11725667323573   -1.31817014375242
H         4.38899144996613   -2.01615775993022   -3.20328253681649
H         2.73910527711130   -2.27824687950381   -2.56276354410990
H         4.08951950713384   -1.48400612827374   -1.68917077345030
H         2.77512109933141   -0.45723429500901   -4.23975660449054
H         5.34538771772178    3.07974451052107   -1.91105886806300
H         4.11229616660156    3.18266500944226   -0.67060634349161
H         5.08797254647655    5.21407049835126   -2.74614879925449
H         2.21690016317380    4.34121288761411   -3.98686457235642
H         1.20291392525582    2.86656077021108   -1.68129717867172
H        -1.02744944019809    3.03899864102820   -3.07020014456521
H        -0.24646037786681    3.86197363778277   -4.25638265966860
H         0.57030615712118    5.33669179039049   -2.66361550654312
H         1.67928158789381    1.45989579752293   -4.33985366314237
H         0.24859136168611    1.08062003565312   -3.42001250655131
H         1.46334823487426   -0.94140322923896   -0.76607964562519
H         0.38582193060660   -1.04580434840111   -2.24931683351263
H        -0.19041944711613    0.29671130531992    0.23242788747234
H        -1.01181065931832    0.37247996274682   -1.22754353267001
H         2.31423240572874    1.75056943387410   -0.68134611454995
