35
 energy: -49.726667970290 gnorm: 0.101065936094 xtb: 6.4.1 (79825abcba525fcdf90b791dcacef51065a7a4e7)
C         3.65436392665449   -1.44947565896627   -2.89052831820589
C         3.06089784880820   -0.06482753666546   -3.10507905946442
N         4.08284550831177    0.99794149790808   -2.87698486171826
C         3.64153836749469    1.71276196710722   -1.88244570493581
C         4.07945143067735    3.10351157585162   -1.54897512148364
C         3.69812320136110    3.84257409514349   -2.83726762582335
N         4.46038461517615    4.69798582304180   -3.44296814163471
N         2.40813606980625    3.65295605850251   -3.30415951110818
C         1.22570179226398    2.99619261841525   -2.71389015136168
C        -0.07828181557211    3.72023125184373   -3.13818559536300
O        -0.04752108418852    5.09860218784535   -2.76724989860787
C         1.02775099443375    1.50335194412746   -3.05814837442600
C         1.85308328725332    0.46382674864172   -2.24687428411658
C         0.92612544603668   -0.64098810321357   -1.65153417018865
N        -0.10465327533734   -0.03894373541637   -0.79156918123362
N         2.60966861318711    1.13032291712529   -1.16848732223479
H         4.62777883225617   -1.41991585451012   -3.39438079770733
H         2.98984719681435   -2.16170095347685   -3.39082295591498
H         3.77188668491177   -1.71652527844060   -1.83828283172771
H         2.81147633871802   -0.04270626933067   -4.17466495107440
H         5.15335682243419    3.27636294716556   -1.44165896154678
H         3.57253430936765    3.57508058074137   -0.70479995581599
H         5.46115730381367    4.68787179315072   -3.20941024126889
H         2.25424319173424    4.11153443015611   -4.20523023514425
H         1.42921123261453    3.09766256981103   -1.63925177385656
H        -0.96403751110414    3.33816879092516   -2.62040889331425
H        -0.28467051966508    3.40488947460421   -4.16866247094658
H         0.85798863245710    5.45546950152796   -2.84184971618443
H         1.19627686075863    1.39218237403270   -4.13764388621652
H        -0.03022784526761    1.25844373585037   -2.89344982042784
H         1.55254121003106   -1.32507340242618   -1.07963037433389
H         0.25885162158991   -1.21172359987978   -2.30932390389507
H         0.21698988275674    0.30047330910072    0.11161312921554
H        -0.80981198807014   -0.74212854773644   -0.56512405577673
H         2.20125824586550    1.77486900583012   -0.49468112133586
