35
 energy: -49.723328165792 gnorm: 0.119880975327 xtb: 6.4.1 (79825abcba525fcdf90b791dcacef51065a7a4e7)
C         3.40811393769855   -1.45934489361314   -3.04943480118478
C         3.00032692848622    0.00576951964861   -3.10075666225320
N         4.14788106229056    0.92619385753053   -2.85211930402646
C         3.73056597182682    1.64969807202386   -1.85351118551279
C         4.24004011189241    3.03365483792915   -1.60400227572462
C         3.65967394164857    3.90555073359902   -2.72395532436076
N         4.13266400696606    4.99880620466988   -3.23456052908612
N         2.54239150501401    3.45968419510209   -3.41017163529903
C         1.32350562108108    2.97361860787590   -2.73492027619007
C         0.10768745381225    3.73178511776780   -3.32788026559202
O        -0.01085798043465    5.11832453726184   -3.00866033280619
C         0.90951154744965    1.48581695587778   -2.77134368576510
C         1.88616118503365    0.48037186074072   -2.09666796976061
C         0.99132821734869   -0.65911240060827   -1.51774991159631
N        -0.10249955140810   -0.08196576313397   -0.72091583673397
N         2.68961708457054    1.17855465381414   -1.07365461319709
H         4.17442025177326   -1.65044401691606   -3.81004865631788
H         2.61551806953770   -2.08818432404955   -3.46835583924234
H         3.83545464529865   -1.76991795327084   -2.09378217028629
H         2.60723229014585    0.25992748913708   -4.09453467875678
H         5.32260921900685    2.99920374939916   -1.75071420109393
H         3.91129402548886    3.45707280808582   -0.65288859938028
H         5.06020501405624    5.32825670650937   -2.93904808242156
H         2.43514831582777    3.81502309836848   -4.36313477465968
H         1.31432460385497    3.27205632224811   -1.67784387274138
H        -0.78651193086403    3.23624145230503   -2.93612584269574
H         0.02623021767134    3.60574470428095   -4.41480153974072
H         0.70078224298381    5.58813773304534   -3.48375086416134
H         0.85848786336560    1.08271484183841   -3.79162574258488
H        -0.01475998949306    1.36132779980753   -2.19112868569337
H         1.57618679830148   -1.41280747468541   -0.99113095554654
H         0.42918124186233   -1.11997460686632   -2.33950261705045
H         0.23586078492761    0.07134526722146    0.22587059627417
H        -0.76502784113157   -0.85639560912752   -0.78656466162069
H         2.24065868834885    1.76957146554010   -0.37695600026443
