35
 energy: -49.712089720986 gnorm: 0.131921939375 xtb: 6.4.1 (79825abcba525fcdf90b791dcacef51065a7a4e7)
C         3.55277512523551   -1.32368637837827   -2.84620586726338
C         2.99932477779291    0.04185841128064   -3.22629081070353
N         4.06806492473275    1.08201026067973   -3.18433102999760
C         3.82179811262001    1.64385291613660   -2.03606541654503
C         4.38021258790566    2.98945696473133   -1.69742404448571
C         3.85429652538759    3.70245076438670   -2.94897282184312
N         4.66637543891266    4.05819108124138   -3.89428836883185
N         2.50901969069843    3.82080925412411   -3.25594406192693
C         1.36141891465645    3.21841186757970   -2.55022684178792
C         0.11566530951488    4.00034987362098   -3.04145259556962
O        -0.92524383190187    3.85851970073251   -2.07458222206848
C         1.01723589844346    1.73605303126492   -2.81559795145527
C         1.93655015367851    0.62844235782350   -2.22567292957221
C         0.85988259200353   -0.34678464487987   -1.65644908341646
N        -0.13072037703510    0.35872522614709   -0.82852182633896
N         2.89730451528631    1.05773148189791   -1.19019293379002
H         4.18867118729672   -1.07924883520321   -1.98704105890508
H         4.17403391933340   -1.69979506345248   -3.66579225407481
H         2.76170133380333   -2.03999967164743   -2.61502372661972
H         2.69519315254776    0.02046513531576   -4.28163941853209
H         5.42541543443001    3.29158526653322   -1.59284566375815
H         3.82615206472489    3.45154617511058   -0.87799466233839
H         5.66019334349624    3.90776848700816   -3.68005349307808
H         2.32176531787088    4.20854449247002   -4.18357694525965
H         1.46965001272412    3.41947362182501   -1.47578742042391
H        -0.10035879177939    3.72033448407236   -4.07757641130949
H         0.47291197046682    5.03555318298568   -3.10963077835261
H        -1.72164126219570    4.30437857697012   -2.42074440397801
H         0.89966470832309    1.63569630423676   -3.90287700240564
H         0.02703132071865    1.67427591362528   -2.34431953265143
H         1.30012506833061   -1.17291019170070   -1.09864401859607
H         0.42630762218110   -0.86691932911430   -2.51967174212037
H         0.14129528659690    0.33599681726183    0.15121662585494
H        -1.01587377279504   -0.14846851157045   -0.87598826426966
H         2.55438811252687    1.53384738801532   -0.35834230936177
