35
 energy: -49.717720529515 gnorm: 0.108973662131 xtb: 6.4.1 (79825abcba525fcdf90b791dcacef51065a7a4e7)
C         3.40854888252800   -1.49253476205063   -2.83393840993992
C         2.88714835630210   -0.11441707910589   -3.21396153086423
N         4.01398003468175    0.86316446492752   -3.19235855654222
C         3.77223301061102    1.58899593454166   -2.13900417145584
C         4.46700186585246    2.89498106742696   -1.91797481406178
C         3.87025368334977    3.90408934399639   -2.90636454130137
N         4.49799215603159    4.99007477522883   -3.23228605252993
N         2.58134651335198    3.63046649903961   -3.33281343100093
C         1.38125753421434    3.14012068973543   -2.62765077223127
C         0.23736696220325    4.03197187787329   -3.17605540476502
O        -1.09401901777070    3.73928013659098   -2.75156881355145
C         1.02956957641427    1.67982160974734   -2.98836351472523
C         1.81379531680856    0.54393362989784   -2.27093746676487
C         0.91794525895990   -0.40280635218927   -1.41336378635147
N         0.07303252909196    0.41310196497540   -0.52740776782981
N         2.77279359375842    1.11811087172362   -1.30646883780986
H         4.33250721204562   -1.46031627925611   -2.24441262506622
H         3.58747251033980   -1.89739023057898   -3.83554735029878
H         2.65615451017105   -2.03317248411880   -2.25604462578184
H         2.53123683196964   -0.12149821146721   -4.25318780912773
H         5.47477624863162    2.75303746092661   -2.31660992901166
H         4.54549680398056    3.21706376993172   -0.87774635247649
H         5.46803051911281    4.85929672841480   -2.91904453936066
H         2.35502389901533    4.27502659043755   -4.09388238806507
H         1.48005756668535    3.30768279016388   -1.54657660119281
H         0.27298996199524    3.99139827693705   -4.26954174565561
H         0.45029190653341    5.03892240612875   -2.79574903816360
H        -1.17141893619306    4.20400562421244   -1.89663797728293
H         1.02812326398601    1.43354962357174   -4.05860564128438
H        -0.03252627775692    1.58728318646464   -2.72414031126726
H         1.63064629967322   -0.86894238150267   -0.73349777516204
H         0.41390103697555   -1.17880302146283   -2.00281207503794
H         0.22489668913043    0.19443649694714    0.45418238410338
H        -0.93429632550872    0.40172023315615   -0.69519965405909
H         2.45902926510259    1.62374969841638   -0.48055431779236
