35
 energy: -49.719777483824 gnorm: 0.114443430580 xtb: 6.4.1 (79825abcba525fcdf90b791dcacef51065a7a4e7)
C         3.58663090029080   -1.37645858472421   -3.03594662816929
C         2.89236790533541   -0.03227868782689   -3.19923699848897
N         3.92307834728355    1.04627542417589   -3.18377661151461
C         3.71411029844493    1.67260563786001   -2.06178229417981
C         4.26938842361371    3.00844248779665   -1.68183353005172
C         3.62494007766313    4.04480070574554   -2.61025702089051
N         4.11630493804554    5.18087056342495   -2.99438026681767
N         2.41902723687384    3.67229192318195   -3.18036340303249
C         1.23947835763179    3.03174658930446   -2.56695236795657
C         0.00274197946385    3.81347412099942   -3.08077826515454
O         0.21234218219087    5.22405158515957   -3.14995150759183
C         0.90024100621585    1.55627285112852   -2.87381848227969
C         1.78754030645364    0.47128597849519   -2.19894432146515
C         1.03680267658535   -0.76650375526031   -1.61707995636739
N        -0.09455333301734   -0.59323546470949   -0.69268088932103
N         2.73250946426428    1.11300094038244   -1.26364108451761
H         4.14462953008702   -1.45967940450069   -2.09573946745844
H         4.37669437381016   -1.57936692119958   -3.76654227197638
H         2.80326606528255   -2.12526543038705   -3.17001941793466
H         2.46534242163301    0.03482548615573   -4.20911852406624
H         5.33331920073511    2.98083775844284   -1.93074402269172
H         4.15588570274875    3.26456336943855   -0.62661164403747
H         4.98895123162536    5.32165136374043   -2.47010287481294
H         2.14685452489483    4.24463662664340   -3.98301473311889
H         1.26199805171020    3.16648284400059   -1.47704462051495
H        -0.90514674574875    3.70147210237752   -2.47926250602059
H        -0.16287609619462    3.47423040005617   -4.11102274525938
H         1.17751688794102    5.36684814579105   -3.11971590388388
H         0.92023051388813    1.39037003152996   -3.95924323181569
H        -0.06776381087244    1.28112287311549   -2.43372298849843
H         1.81269116955988   -1.32931716689066   -1.09873502023543
H         0.78029350818026   -1.32090085735773   -2.52841283221249
H         0.02142365865138   -0.44805405162227    0.30725322061763
H        -0.92920992679529   -1.12370501285859   -0.94752497487436
H         2.36877541546268    1.68668198332294   -0.50545832871610
