35
 energy: -49.723665310832 gnorm: 0.116283836951 xtb: 6.4.1 (79825abcba525fcdf90b791dcacef51065a7a4e7)
C         3.64755434604859   -1.37733940534920   -2.43870153457242
C         3.01094201497355   -0.18656539422399   -3.14031855190283
N         3.93101207107632    0.98781244472647   -3.15409484209870
C         3.65356273970263    1.64634044886755   -2.06588937891253
C         4.18234292339227    3.00891683792752   -1.74819142263753
C         3.60153898022678    3.99809451762095   -2.76579472048523
N         4.27649015257246    4.99439408126996   -3.24691101209874
N         2.41258174397896    3.58994744506430   -3.34700595559194
C         1.29907127358124    2.96894450825079   -2.60379886732834
C         0.06637354300239    3.78626837587619   -3.06970641230465
O         0.04425414335226    5.15163150705608   -2.65288485817472
C         1.06802078574597    1.51286329737412   -3.06500891942322
C         1.82908941796347    0.40253187033946   -2.28533570298547
C         0.88632294851463   -0.70620853180156   -1.72303449773681
N        -0.29737341323851   -0.10809812707502   -1.08614452609532
N         2.71985659206785    1.00353568335422   -1.27296957100679
H         4.63911788969576   -1.50292470686208   -2.88959814610234
H         3.01556777865068   -2.24799936576029   -2.64287375174265
H         3.70168611526273   -1.29745039083237   -1.35102733699762
H         2.70712898495985   -0.33508130910523   -4.18547647280657
H         5.25709453265639    3.03749111709922   -1.94506606171703
H         3.90126491714510    3.29662986390282   -0.73320848852927
H         5.09087159050723    5.15008441394487   -2.63967056660497
H         2.20759632001302    4.16411132712994   -4.16811642842490
H         1.57542910952766    3.11627049156815   -1.55095449266062
H        -0.78692345381825    3.29580320808081   -2.59016939282752
H        -0.02004663014793    3.72348460628815   -4.16172705395056
H         0.94834109860598    5.44109475585734   -2.88027234000816
H         1.37683465758947    1.48819808476499   -4.11861977140312
H         0.00804862183438    1.23674193895705   -3.14650041950081
H         1.43839781918818   -1.39380852774808   -1.08282911483309
H         0.60457767344460   -1.18990630343680   -2.66661108585277
H        -0.09053470225901    0.56283803440867   -0.35030558255641
H        -0.90336734513577   -0.74184791989101   -0.56257252874301
H         2.20890973069732    1.34199366078162   -0.46017625918679
