35
 energy: -49.722936264389 gnorm: 0.109483735236 xtb: 6.4.1 (79825abcba525fcdf90b791dcacef51065a7a4e7)
C         3.69617692190927   -1.35143051435792   -2.84060556776224
C         2.98342129037745   -0.03152697722135   -3.09618044345003
N         4.01960907639512    1.03134909185074   -2.94620927743874
C         3.67423046372632    1.67635948896652   -1.86940676660181
C         4.32958351957292    3.00987252786496   -1.69791239693470
C         3.69782914186403    3.83259163135699   -2.82722275689503
N         4.29466432461094    4.73523471090810   -3.54043243886078
N         2.36787384374111    3.65099396136960   -3.16817881512361
C         1.16806213200293    3.02973958992515   -2.57454439128676
C         0.01873530514723    3.83780763517819   -3.23082613237058
O        -0.05749298613139    5.16214421572319   -2.70284144247061
C         0.97100369699875    1.53237613586956   -2.89910901326431
C         1.82718602087967    0.46859293660649   -2.15394538341210
C         0.99973935583127   -0.72682978957822   -1.58773597802084
N        -0.10215241979719   -0.23513982739375   -0.74596553863165
N         2.61912440436527    1.17557156118969   -1.12799617589713
H         4.72788793669716   -1.27581445292142   -3.20410560635899
H         3.21330987312558   -2.20401548844162   -3.32956400810345
H         3.75599129156021   -1.47653744495706   -1.75749977045892
H         2.68497566713169   -0.16292536113678   -4.14517000567835
H         5.39247352520783    2.95523136575902   -1.94680259716983
H         4.06250348327873    3.40145525633616   -0.71439562933723
H         5.25318150305860    4.98155080413644   -3.26335706210971
H         2.17154330249546    4.03512529649509   -4.09543446363319
H         1.05781081379484    3.17881826534318   -1.49187173622432
H        -0.98341945644255    3.41651116095436   -3.10112374917919
H         0.23410885818712    3.97603007125652   -4.29779760593124
H         0.74920668597046    5.61145888639809   -3.01941564823518
H         0.96774870649354    1.29068625176863   -3.97039124195745
H        -0.04261269388210    1.22316399892090   -2.61032787242077
H         1.70513124386932   -1.36524430604901   -1.05642387061941
H         0.62830196339430   -1.45114553854163   -2.32331851146273
H        -0.46345163615634   -1.01197742289896   -0.19789367642692
H        -0.89949379263962   -0.08229475862111   -1.36554620908832
H         2.15980438788518    1.77559902457586   -0.44590699313783
