35
 energy: -49.722348834012 gnorm: 0.116613606695 xtb: 6.4.1 (79825abcba525fcdf90b791dcacef51065a7a4e7)
C         3.60311547614255   -1.44415233405206   -2.66489446607061
C         2.99976642927807   -0.07232771337689   -2.92862072723454
N         4.08199487888156    0.95068410701759   -2.83856303388950
C         3.75385567444958    1.80677874925252   -1.91430385335571
C         4.37163484780077    3.16246453811400   -2.04704357962240
C         3.79581821059331    3.81419329760728   -3.30997943389887
N         4.43726676101424    4.30109209840801   -4.32541929610213
N         2.47190595744543    3.62836739634005   -3.67155226006970
C         1.37841943751892    3.11163003261628   -2.82587106937190
C         0.10860375944268    3.94803901753515   -3.13020636210343
O        -0.82574771784047    3.71960090727340   -2.07510006270699
C         1.09759400761764    1.59580792084245   -2.92431852236911
C         1.90404039792125    0.61093780969209   -2.03010002118227
C         0.94366157194359   -0.36213735703325   -1.27837284766790
N         0.05525631082569    0.33597183530609   -0.33609815091256
N         2.73295793671191    1.38236922869093   -1.08281643458398
H         4.33425628863700   -1.40264882507236   -1.84881343955520
H         4.08280822087727   -1.86677584947929   -3.55395369125071
H         2.81738936720653   -2.15391537806346   -2.39802640804335
H         2.70058629962485   -0.02105296398168   -3.98435580783824
H         5.44921823034541    2.98579929926730   -2.09469413572636
H         4.27948378636996    3.79809869747408   -1.16417814555132
H         5.42578070293434    4.46699817707051   -4.09845470552268
H         2.27157308750911    4.02597664839528   -4.59224721825609
H         1.56619985309824    3.36725894415662   -1.77422842359152
H        -0.30616922902101    3.58288032206910   -4.07532544876055
H         0.42495923582587    4.99835919576561   -3.15601458598925
H        -1.53140101421394    4.39241909182559   -2.12239040140583
H         1.15775020185460    1.24902246445279   -3.96460274888883
H         0.02788533553597    1.56611621048313   -2.67679756285524
H         1.53013703401576   -0.88903328016212   -0.52612915459575
H         0.41849519748381   -1.08398754749169   -1.91619199892598
H        -0.55098256356825    0.99680941385035   -0.81585293858284
H        -0.56640364115230   -0.38270135533222    0.03812482182808
H         2.21259137069334    2.04205779673486   -0.50811381512777
