35
 energy: -49.719032655258 gnorm: 0.124843339746 xtb: 6.4.1 (79825abcba525fcdf90b791dcacef51065a7a4e7)
C         3.53523355767006   -1.37564471585034   -3.06959485551263
C         2.91765774551118    0.00421123698975   -3.24303676601906
N         3.97543180697528    1.04553270354432   -3.09255210717691
C         3.69942943502254    1.65829222374356   -1.97757368765952
C         4.28188051646879    2.97068038381421   -1.55859517689840
C         3.68064110204307    3.87921132622559   -2.63767110789494
N         4.20121703495660    5.04408437714137   -2.86508321349736
N         2.48599446291305    3.58011033159894   -3.27120707650223
C         1.28319677125884    2.96423509756738   -2.67801034273305
C         0.08328248337173    3.69975140883191   -3.32905050674661
O        -0.04801873518787    5.07123602261785   -2.95456966561043
C         0.94615143522812    1.49011579657540   -2.99367511995965
C         1.80095508595510    0.44197731966576   -2.22512575344107
C         0.93547922584239   -0.65533934725046   -1.53148015718824
N         0.04290437681047   -0.04034793621318   -0.53669491740254
N         2.66616500989624    1.11439694233830   -1.23577213997653
H         3.72523756182454   -1.62944434404158   -2.01994638876488
H         4.44098202290698   -1.51609479634264   -3.66879062402548
H         2.84068096063234   -2.11748847746566   -3.46910979510410
H         2.63764372043718   -0.02084002274974   -4.30495907703097
H         5.37059069651464    2.93680358738372   -1.64931255137716
H         3.95663719600302    3.08696574483348   -0.52289807457316
H         5.11021779700651    5.28030334840176   -2.44781139629921
H         2.29737791627880    4.16467039017438   -4.08889829277741
H         1.39203739745904    3.14612703553204   -1.60022143835568
H        -0.80515946602968    3.22439070563828   -2.90087915896017
H         0.05271654069798    3.70301133136004   -4.42585241371045
H         0.30988186536128    5.60771088808402   -3.68735144717373
H         1.02111648926188    1.25027061566413   -4.06275169785422
H        -0.08461135196509    1.29331994909674   -2.66929210700072
H         1.74307893490856   -1.29742730200510   -1.18083912546487
H         0.39291892839554   -1.12130430760794   -2.36345713456592
H         0.60471515337491    0.09006978884806    0.30101410552753
H        -0.79646677236203   -0.58984763990008   -0.34564196004130
H         2.23122184329569    1.54954584603198   -0.42477069222136
