35
 energy: -49.725408023672 gnorm: 0.112381288282 xtb: 6.4.1 (79825abcba525fcdf90b791dcacef51065a7a4e7)
C         3.78407499033454   -1.24166694259878   -2.75737079813088
C         3.02642758688652    0.01553325934934   -3.15849735602546
N         3.95179097787399    1.18294592892015   -3.07644696523138
C         3.64888525461005    1.70091806205183   -1.92111955668161
C         4.21442982997113    3.06042961211663   -1.65835993819036
C         3.72394159962081    3.89085771449067   -2.85047261994803
N         4.45754549444220    4.62727917217496   -3.62452271960904
N         2.38349011862127    3.78408561029735   -3.18183249717297
C         1.27561185005606    3.05325311786380   -2.53654453306451
C        -0.10127627405945    3.71513055099405   -2.80249410950896
O        -0.18660509474535    5.09469387426246   -2.44476519009286
C         1.05849004079376    1.59193471614669   -2.98785171271296
C         1.83177990094494    0.46797809475680   -2.24039202183669
C         0.87413339830471   -0.69921716803967   -1.84686318985863
N        -0.20953297741998   -0.19506669256043   -0.98895791925164
N         2.68463644597048    1.04118136279852   -1.18037755699250
H         3.88492091966891   -1.37066329453467   -1.67318090667241
H         4.80034364390091   -1.12529413325633   -3.14826397753983
H         3.47178728708758   -2.10554148757606   -3.34774765119038
H         2.81515568807783   -0.14342877759100   -4.22471012858645
H         5.30475007910119    3.13683619647247   -1.65279905339546
H         3.80948811236301    3.42964971333612   -0.71407570057831
H         5.47272277852668    4.60438359838575   -3.46612943412526
H         2.16139786956024    4.12689000564674   -4.11941756783215
H         1.44089966746473    3.11348899741233   -1.45228835774541
H        -0.89731438675661    3.29370445792933   -2.18011885108900
H        -0.19961616787432    3.51183569533265   -3.87623513913557
H         0.63948276954825    5.53762936978934   -2.71726151477065
H         1.30485426683513    1.54651936633220   -4.05710954966656
H        -0.00867987099963    1.33211149468706   -2.97978074808960
H         1.35374455380773   -1.55325772523037   -1.36933704588525
H         0.44563693935267   -1.12582766446152   -2.76232754011618
H         0.04411551786816   -0.37499631996201   -0.02061691062396
H        -1.10730402295796   -0.65023167557511   -1.16166307486405
H         2.10393405486407    1.39108070347367   -0.42103003208627
