35
 energy: -49.717403357941 gnorm: 0.110049899795 xtb: 6.4.1 (79825abcba525fcdf90b791dcacef51065a7a4e7)
C         3.60166183856880   -1.43185415849634   -2.91082196156851
C         2.96961594849502   -0.08847065408286   -3.24447320858946
N         4.00523972671912    0.96692915663867   -3.04573568757031
C         3.73337147523788    1.59485238846042   -1.93820309489311
C         4.33011561177456    2.94531134443021   -1.69880403360256
C         3.54352796173662    3.93728464386690   -2.56401557052155
N         3.84512714574162    5.12340801393641   -2.99038872344414
N         2.50650514046072    3.28027688750612   -3.20505716561260
C         1.18519202812099    2.86335961879520   -2.69690498845795
C         0.13787545450943    3.77486220791330   -3.38750100474918
O         0.21937000409163    5.12160952324004   -2.92051464009827
C         0.94628593753073    1.38659464751558   -3.08208110901659
C         1.85632073505706    0.42889021717856   -2.26074649259671
C         0.87418200641318   -0.57621364862026   -1.58290709981782
N         0.15217648330379    0.08585123497531   -0.48523680782090
N         2.66927053472902    1.08387175811225   -1.21687452189703
H         4.51432753890921   -1.53634410829505   -3.50948784753501
H         2.99335337136596   -2.31842343507293   -3.11842203835920
H         3.90812023343812   -1.49678918603987   -1.86477495064310
H         2.54713874641883   -0.08866580797726   -4.25848867680158
H         5.30700291522061    3.02727714243304   -2.18216718358573
H         4.34049994533609    3.32382500936102   -0.67479546554834
H         4.66761662604517    5.56385916469392   -2.55944627412753
H         2.30427813310057    3.91062542899747   -3.98458944366367
H         1.01122082721599    2.97350152527937   -1.61794129093295
H        -0.87849824914806    3.62735167344987   -3.00822177967007
H         0.09454417701380    3.57608609763143   -4.46570774909040
H         1.12529392515019    5.36042964916968   -2.64640871810701
H         1.11208781552344    1.19561579498056   -4.15077517815606
H        -0.10835363450472    1.19839331802885   -2.83971671715695
H         1.44447228614179   -1.38116355460349   -1.12001618918936
H         0.23978017140558   -1.03579034311582   -2.35102444814606
H        -0.38471970810338   -0.68237128248368   -0.09030240622445
H        -0.55019343549703    0.76832961919658   -0.77488285489388
H         2.21641541099712    1.68360666325856   -0.53022051007049
