35
 energy: -49.723127086091 gnorm: 0.105016619957 xtb: 6.4.1 (79825abcba525fcdf90b791dcacef51065a7a4e7)
C         3.78702622021842   -1.47491773873571   -2.84412193654752
C         3.06682182037518   -0.18862253367383   -3.22126211975696
N         4.02062709681645    0.95661919882766   -3.15374260162589
C         3.78124423674636    1.59125834350119   -2.04254620098106
C         4.35601542689318    2.94557171044146   -1.77304974888211
C         3.61509653519736    3.87003451938148   -2.74656395376353
N         4.32886820825011    4.77736795389594   -3.33556382928897
N         2.26501353966165    3.84140497198767   -3.05391731877863
C         1.19287225827161    2.93188872941852   -2.60536380686112
C        -0.12669084638351    3.67437591351149   -2.94017395113332
O        -0.08304764504319    4.95144478925319   -2.30327810398578
C         1.20130642342431    1.51195735645146   -3.21363620224383
C         1.90392896021147    0.42147318151973   -2.35508070138513
C         0.81411234199668   -0.48224148497145   -1.69941607020623
N         0.03474220193339    0.26305716018273   -0.69860934981483
N         2.78422922774185    0.97547200784734   -1.30736236953821
H         3.66151060859729   -1.62140845280537   -1.76474063885525
H         4.81828136786613   -1.37088800286697   -3.19743867606327
H         3.34072533672566   -2.35685346267810   -3.30818288954200
H         2.81470521224573   -0.30413534404727   -4.28418659181199
H         5.40897151836472    2.95837620996482   -2.06594335087258
H         4.12314396798178    3.31032534806932   -0.77070266516505
H         5.33052012307149    4.78715324903636   -3.10579165161449
H         1.95719873345801    4.68980488273909   -3.53493003272443
H         1.28206746252286    2.85711712943491   -1.51311231723585
H        -0.98959886271674    3.10106782083292   -2.58614686165352
H        -0.19938725906202    3.73078810685194   -4.03354133196841
H        -0.98751829215984    5.31466239186070   -2.35687925688571
H         1.79661375045497    1.50788418069783   -4.13649199482155
H         0.16445360649139    1.24753474210676   -3.46151076013712
H         1.23299988529549   -1.35256814154564   -1.19492811440783
H         0.08483384369334   -0.81999576393787   -2.44624645715377
H        -0.79530019124405   -0.24392620326132   -0.40129800930843
H        -0.23967571728421    1.22539384514727   -0.90256521088187
H         2.27546638754235    1.44481319880124   -0.56094913999431
