35
 energy: -49.719590225201 gnorm: 0.116781110923 xtb: 6.4.1 (79825abcba525fcdf90b791dcacef51065a7a4e7)
C         3.74329319115440   -1.44036732259663   -2.60017997470207
C         3.01920345592660   -0.21709555637120   -3.14312075071854
N         4.02670088094363    0.88203283988055   -3.09070211827501
C         3.73286948927213    1.60489699758549   -2.04860858195521
C         4.15995208448052    2.99377051490636   -1.69394573090497
C         3.61343561552278    3.94164804422333   -2.76826882331807
N         4.19627165855019    5.00825042630764   -3.21805354464240
N         2.34696458369454    3.67296529684040   -3.26007215765568
C         1.16307063291314    2.91976295402668   -2.80291979601420
C        -0.04627052188053    3.78176000329435   -3.24911133611313
O        -0.08171839899929    4.99761436763012   -2.50152349957138
C         0.95729528921378    1.44312447456698   -3.20723009555567
C         1.80756039206584    0.43578651441383   -2.38123302149873
C         0.87482519901388   -0.62068483467274   -1.71177807657093
N         0.34443271557935    0.09770849065800   -0.54254891251491
N         2.64182791084083    1.10282660993270   -1.36210978705176
H         4.74363310460394   -1.65028417123141   -2.99708380790103
H         3.10191669101560   -2.32597237208839   -2.65918812266922
H         3.86589007982386   -1.31952261946042   -1.52188770050087
H         2.73150829517621   -0.46054412099201   -4.17495344731944
H         5.24969998034247    2.95566294462148   -1.76920845369470
H         3.80907740996311    3.35154141242396   -0.72396586424621
H         5.16319256703370    5.18375834279210   -2.91729037337559
H         2.19180681320196    4.28347909742905   -4.06574240904517
H         1.06718417866608    3.09504661477039   -1.72280808578832
H        -0.98312345280650    3.23650690106755   -3.09538028768846
H         0.16021609928293    4.00666705645994   -4.30300859205757
H         0.82505605853130    5.34349751743083   -2.60636715596817
H         1.03798396655658    1.40870135882886   -4.30193306065003
H        -0.08537846710738    1.15077551950057   -3.02341389005045
H         1.52541173473346   -1.41370271656169   -1.34394228897799
H         0.06813028478925   -0.87941537284082   -2.40890255419032
H         0.16612046102160   -0.60793354462858    0.16785280519986
H        -0.59669201457848    0.40563602622821   -0.79246882891800
H         2.20300628692373    1.59500309557742   -0.58657682759251
