35
 energy: -49.722942787091 gnorm: 0.110748533271 xtb: 6.4.1 (79825abcba525fcdf90b791dcacef51065a7a4e7)
C         3.44415668221651   -1.44875595089981   -2.62033642775985
C         2.82337643564260   -0.18101814249182   -3.18862961597064
N         3.82172083998623    0.92421113903313   -3.27614339541145
C         3.80951765471108    1.57729114192971   -2.15001463461837
C         4.48570311451807    2.91072368575550   -2.19344000064473
C         3.50757458440394    3.86832892271862   -2.88451089090883
N         3.59548755837655    5.16094288827339   -2.91714909675660
N         2.44789451509619    3.30710007300818   -3.57741073767333
C         1.26751332450045    2.94767504211052   -2.76783005559499
C         0.11366944242374    3.86521195667216   -3.24887280415755
O         0.38138282600802    5.26454887844578   -3.15596602055862
C         0.80143070853346    1.47637198380068   -2.70221138121790
C         1.83978321265337    0.46206614323432   -2.14278368152774
C         1.04168486346313   -0.63078015021139   -1.36623844456048
N         0.07740557066235   -0.02244590973637   -0.43640144243397
N         2.81662747996130    1.15863269934898   -1.28247722887487
H         3.77372204676994   -1.25328772603004   -1.59298229260400
H         4.28930975237876   -1.78977956469737   -3.22742888714555
H         2.67403947218322   -2.21897247424501   -2.54265986164940
H         2.43343354621619   -0.38354790379278   -4.19542682596759
H         5.36429441293998    2.91228965872660   -2.84362613539564
H         4.70842772204699    3.26880727249516   -1.18639289201779
H         4.36455215446455    5.57095037744165   -2.37251062300963
H         2.19133998406021    4.08319486067610   -4.19203442339633
H         1.53689393579866    3.28710129513840   -1.75848185274085
H        -0.77688739800214    3.47528734869786   -2.74539002998057
H        -0.01557954629846    3.58440869115260   -4.30166127120672
H         1.31649003558596    5.40201116009942   -2.91194576138023
H         0.51051485841601    1.26885845716503   -3.74066036563773
H        -0.04487679935230    1.54676600140119   -2.00562460310028
H         1.74735680304676   -1.30330314122331   -0.87922377960112
H         0.47339805975508   -1.21784719764662   -2.09841539131415
H        -0.52586434677872   -0.75072162154386   -0.06213358449536
H         0.55692048625606    0.39784997912798    0.36135283810419
H         2.37940617158071    1.83323603010969   -0.65797635953355
