35
 energy: -49.718801307322 gnorm: 0.114035141950 xtb: 6.4.1 (79825abcba525fcdf90b791dcacef51065a7a4e7)
C         3.58539056627795   -1.49538571574002   -2.68089294603607
C         3.20943353332736   -0.05552543917651   -2.99860845263235
N         4.24649711992022    0.98924441487201   -2.75604490031446
C         3.82060453554781    1.67663988551471   -1.73578443834255
C         4.14831159981373    3.13272895344823   -1.63797004052579
C         3.59928123818847    3.84254742345966   -2.88137086089902
N         4.30926756941527    4.60730151159326   -3.64995098729049
N         2.26152837387451    3.73649944983568   -3.22368789716568
C         1.14625787397664    3.00698117146873   -2.58974642808179
C        -0.12350524721115    3.77297905953854   -3.04315650256242
O        -0.06352720510846    5.14505828321271   -2.65296782993393
C         1.09884686285795    1.52077548861716   -3.00833503214914
C         1.93699940761712    0.46403717762384   -2.23325041639795
C         1.01987634547090   -0.68505262415994   -1.71097223158903
N        -0.21520228519738   -0.06488332827433   -1.20651925472253
N         2.68379457622491    1.14285763936834   -1.15572699582569
H         4.43718700979611   -1.97884787903975   -3.17382786388046
H         2.70058480689425   -2.08655824920438   -2.93930325679247
H         3.72245173855631   -1.74213744439904   -1.62605860598842
H         2.99460800464571   -0.03623302040621   -4.07573064891680
H         5.19896703921068    3.23175222960911   -1.92254814804466
H         3.89317197937029    3.49495068053817   -0.64013578988051
H         5.28485457751490    4.66976233164140   -3.33289231235179
H         1.94952906324017    4.19982489587607   -4.08036260768164
H         1.28605663245333    3.12881672628040   -1.50707736528759
H        -0.99660915646104    3.40475464703093   -2.49476982929845
H        -0.17454975272598    3.69135643977721   -4.13615766489252
H         0.74216726726212    5.53918411288740   -3.03818012041542
H         1.54428931292912    1.54379344547953   -4.01188942806393
H         0.07518294447101    1.12967151440385   -3.08299920824067
H         1.55267142026101   -1.14265702522380   -0.87780298698817
H         0.80838517722659   -1.38257057435201   -2.53098498085545
H        -0.23216051563144   -0.03813626127028   -0.18995958966223
H        -1.12400486204857   -0.44611351658555   -1.47435596781925
H         2.20573879388144    1.80852097980433   -0.55189880740191
