35
 energy: -49.719936286606 gnorm: 0.100165273990 xtb: 6.4.1 (79825abcba525fcdf90b791dcacef51065a7a4e7)
C         3.18847804767970   -1.61086944992223   -3.00149168174595
C         2.90119422989704   -0.13740629455902   -3.25020594825708
N         4.10168840762379    0.74411233936860   -3.16290969869933
C         3.94656750744216    1.55565900466692   -2.15684909218875
C         4.64933410953572    2.85999108906638   -1.95192992876630
C         3.81033589650609    3.92239561022145   -2.67213880179056
N         4.29544743770158    5.07053862937997   -3.02721515971273
N         2.50392911150071    3.74112549822766   -3.09457495095739
C         1.25435027577463    3.14102535626533   -2.58827510971038
C         0.20747871983189    3.99794294096757   -3.34615639844682
O        -1.13597521506769    3.91891755360903   -2.86936244529316
C         1.02988583778349    1.64214733432424   -2.88702573767212
C         1.93953239027365    0.56815011690478   -2.22443624083342
C         1.06152312580968   -0.37718357627068   -1.34708765986966
N         0.18027160810342    0.47847945100064   -0.53731081523101
N         2.88556346102728    1.25388762241599   -1.32202488475725
H         3.78482643033166   -1.75261181632334   -2.09234076426268
H         3.79998299691681   -2.04283876287385   -3.80062013853568
H         2.32477765675601   -2.24460110972407   -2.78994149044287
H         2.43409884276798   -0.04648683199980   -4.24029179253514
H         5.68433948287296    2.81447439643634   -2.30029646572150
H         4.74579864815788    3.14218089741135   -0.90167400346131
H         5.30902721816082    5.13640351233229   -2.87064117004310
H         2.33437197605660    4.57459845166897   -3.66244714006357
H         1.14643121438944    3.32327066676066   -1.51045322683546
H         0.10168589942366    3.66270011300447   -4.38300148002132
H         0.52170397936821    5.04582544741662   -3.26175216225038
H        -1.56187200429299    3.08758324288132   -3.15284515987786
H         0.98496107436652    1.43140739287111   -3.96389186604518
H         0.08457595428337    1.39813145657064   -2.38376599764679
H         1.63510427226437   -1.02630904255413   -0.68596424993942
H         0.38344501529635   -0.98392544455738   -1.96007632084316
H         0.56470592913827    0.61892350508477    0.39375430686800
H        -0.76428365268822    0.09013655672607   -0.53681690191194
H         2.71811546181018    2.06040075874794   -0.72390180165906
