35
 energy: -49.717365629839 gnorm: 0.120807938682 xtb: 6.4.1 (79825abcba525fcdf90b791dcacef51065a7a4e7)
C         3.63133246749647   -1.35442041466537   -2.64813769772352
C         3.13244858750029   -0.00877788156389   -3.15394940248823
N         4.11770119954861    1.07499792205674   -2.87006686992157
C         3.76912237081807    1.71987936906272   -1.79421876581841
C         4.21155318463794    3.12222180407375   -1.52063948696991
C         3.61999933774457    3.75310344785675   -2.78688376937209
N         4.40974644759379    4.19843674208181   -3.71296290936959
N         2.29862665965670    3.76502922616086   -3.20142187987357
C         1.13864204618849    3.00668224215692   -2.69422123482632
C        -0.17227172232653    3.75827907147108   -3.04241530174883
O        -0.14445531504598    5.02487598256780   -2.38408068566657
C         1.04620301202045    1.54164665753802   -3.17525893390163
C         1.89548237157630    0.53451342268663   -2.34799907280537
C         0.95977923142320   -0.56760924776706   -1.76141421879852
N        -0.01003749112469    0.10400078306138   -0.88226834786751
N         2.57981234213225    1.25889062801386   -1.25872083927189
H         4.61164247597887   -1.49833465221034   -3.11777443020105
H         3.06677365701520   -2.20908554481186   -3.03538818588906
H         3.81785563572261   -1.24368499539440   -1.57795339560188
H         2.87851021726104   -0.09823998332763   -4.21894998747989
H         5.29276911329250    3.28166208779473   -1.53540599303493
H         3.72505433452196    3.52668027750264   -0.63086074541176
H         5.39902974692273    4.13086192249359   -3.44287076953710
H         2.20220683547341    4.00263303654897   -4.19144876675047
H         1.23902924699965    2.91562936009340   -1.60417918897688
H        -1.04733892646647    3.15297284479576   -2.78456001876923
H        -0.07315311544186    3.90232607142946   -4.12562594338386
H         0.72671500269128    5.28990845201249   -2.73577278293928
H         1.42472853445650    1.41646902916887   -4.19854735426320
H         0.03806590930937    1.10657459076657   -3.20348539957879
H         1.41257988469283   -1.45146416411527   -1.31284382397405
H         0.39731605115107   -0.94881186166934   -2.62280869561964
H         0.14720672558279   -0.21494443612910    0.07059299664744
H        -0.94997562278006   -0.26708592098183   -1.02993707208118
H         2.12632757400721    1.73436978131288   -0.48120903342644
