35
 energy: -49.721870786612 gnorm: 0.116041612411 xtb: 6.4.1 (79825abcba525fcdf90b791dcacef51065a7a4e7)
C         3.47766953396447   -1.46416872752633   -2.67054859574093
C         2.95375125494295   -0.12794713125070   -3.17602450009380
N         4.09817772766925    0.82867450452490   -3.14369695125807
C         3.84805388194043    1.54733789794521   -2.08738763314643
C         4.36094188053610    2.93653040814007   -1.87704275171376
C         3.73562727899829    3.88107978684332   -2.91054665030935
N         4.21705923528714    4.86038472880931   -3.60971037287590
N         2.60664293635119    3.30009878513709   -3.46359756143664
C         1.37461499543413    3.03209055410701   -2.69666487258653
C         0.40154570860136    4.19188005908783   -3.03230794300354
O        -0.69650616853236    4.41081425602171   -2.14642091029869
C         0.94898013295491    1.57400461667937   -2.97789766895434
C         1.85230256178086    0.52783090954720   -2.26411842554301
C         0.84225851898932   -0.41313250339149   -1.53700399156458
N        -0.11367844764522    0.39187130593278   -0.76069519747976
N         2.77020279685017    1.17355558087555   -1.30492308145686
H         3.79926563978266   -1.39502851576176   -1.62456903259277
H         4.25922997756182   -1.78843083699033   -3.36564530238684
H         2.83299804596830   -2.34289495645014   -2.73827258458724
H         2.60810484605853   -0.15003083542273   -4.21850004625093
H         5.43806645160824    2.88697110283834   -2.05596638494632
H         4.11934260185454    3.32379987923796   -0.88526347492164
H         5.19933863020603    5.12242533948691   -3.45917974597587
H         2.28412966210117    3.82436345661525   -4.28032111245067
H         1.65429433010100    3.09578271159465   -1.63634290946134
H        -0.03540603809968    3.93970593334550   -4.00396064213603
H         0.88243155378571    5.17778004395453   -3.00643628093343
H        -1.27746938946488    3.62960205600296   -2.21752993724427
H         0.99143357623224    1.35318378799658   -4.05284234734832
H        -0.06359352736758    1.40873316517837   -2.58571812492746
H         1.41603839351687   -1.14222156938906   -0.96547172223227
H         0.24767016211270   -0.91562592356723   -2.31007950334934
H         0.43726807817854    0.92709347180944   -0.09406809386571
H        -0.78697278616198   -0.19474147713171   -0.26515987281338
H         2.40752265258356    1.75867434955172   -0.55502135645436
