35
 energy: -49.718841520832 gnorm: 0.111359598369 xtb: 6.4.1 (79825abcba525fcdf90b791dcacef51065a7a4e7)
C         3.87747553069415   -1.43261057491354   -2.51571925578696
C         3.00866263706076   -0.34365034134894   -3.12793997562446
N         3.88355689931234    0.84281818609565   -3.35757987229825
C         3.77193176325591    1.48399935620975   -2.23008044505515
C         4.36663663872105    2.81016837236791   -1.87687117354905
C         3.53519232046623    3.90311506184166   -2.55913949555835
N         3.99548468934917    5.09925190862773   -2.75157753421058
N         2.33550212788802    3.66359721894037   -3.20828085093495
C         1.16092628973796    2.91854937679194   -2.71514567660796
C        -0.06680121623422    3.72213194928372   -3.21671525496561
O         0.06252871669670    5.14308117578976   -3.26793063790216
C         1.13736128902730    1.43160545688954   -3.13313371569162
C         1.88012467128512    0.35857398824423   -2.28645921608081
C         0.89547178166401   -0.54504089859238   -1.48132855329373
N        -0.16767232292623    0.26829030961672   -0.87082144023900
N         2.76908015604373    1.09023485486777   -1.36234478384637
H         4.52043294170689   -1.59222781976404   -3.38945021633695
H         3.30328690882303   -2.36159164128004   -2.43544667563001
H         4.33315156616939   -1.10999042226085   -1.57730396762137
H         2.61956946073830   -0.76348640731482   -4.06552122471054
H         5.44554214986560    2.84291184528028   -2.04879525467589
H         4.28063342397154    2.98014305091298   -0.80184277146924
H         4.91880096834754    5.21457488957109   -2.31524597499726
H         2.04933557826771    4.58617820217634   -3.54422526369631
H         1.19837331586090    3.04217739603296   -1.62433234568585
H        -0.95776661766878    3.43293496143952   -2.64999367864299
H        -0.32561049435300    3.58485513468674   -4.27411402468933
H         0.36786325430314    5.46401980194091   -2.39808210066677
H         1.47884267282786    1.44917443886954   -4.17675817236974
H         0.07446874662586    1.15475640049306   -3.13937219261207
H         1.52334217548612   -1.04929650882649   -0.74719749329897
H         0.48506295748883   -1.28060947847926   -2.18431089394985
H         0.08943409061700    0.48922547113580    0.08807401008029
H        -1.09151803671859   -0.16703035108429   -0.87049909444979
H         2.31983554883690    1.76728781217995   -0.74913024899357
