35
 energy: -49.719130450093 gnorm: 0.119360161595 xtb: 6.4.1 (79825abcba525fcdf90b791dcacef51065a7a4e7)
C         3.70621271161656   -1.29762611415158   -2.80103977863941
C         3.01462396880121    0.02236337399416   -3.10896380737220
N         4.07780887039367    1.05984630269385   -2.97058372791823
C         3.70771314822310    1.70901268633621   -1.90454404978639
C         4.18852602825840    3.09777215944211   -1.62647740659773
C         3.63503234772024    3.92104579294942   -2.79574532555145
N         4.26984731642270    4.82418942753983   -3.47470506597225
N         2.39084379752283    3.48772151155607   -3.22263495064205
C         1.17911774474099    2.97568453009485   -2.55372160942997
C        -0.09252210409765    3.80767261899753   -2.86252532530111
O         0.13069281598442    5.20228986672729   -3.07148413112202
C         0.89739815138116    1.50727095760869   -2.94188033114558
C         1.81638597598578    0.49179744303868   -2.20416317253549
C         1.06723696192868   -0.74724741848282   -1.62292298866683
N        -0.22596583799475   -0.30242623793519   -1.08046320600768
N         2.61148586163255    1.23486156226221   -1.20655160807769
H         3.57731788038149   -1.61014617650009   -1.75796978446191
H         4.77846766835596   -1.28813470055738   -3.02312377503168
H         3.31033686792708   -2.08428047854478   -3.44664406447718
H         2.79676441096687    0.06839454771931   -4.18466486480492
H         5.27958597655080    3.06662934851308   -1.68379633922669
H         3.77419117094789    3.30585472082240   -0.63804314944800
H         5.27014519293908    4.78410001518142   -3.24233776589570
H         2.22341177699363    3.84077527684530   -4.16774084509968
H         1.20331468721968    3.09843313359581   -1.46243467740925
H        -0.72319928684131    3.74900585434778   -1.96953479026835
H        -0.58184307065929    3.29719692029851   -3.70151214266489
H         1.07849805316706    5.30579300548910   -3.28081543009728
H         0.86688558716185    1.50301580449305   -4.03966040094433
H        -0.16263059340572    1.34583465486167   -2.70375798535072
H         1.71804781390762   -1.21336403465915   -0.88358281203339
H         0.93876751536232   -1.37190652670418   -2.51565884893430
H        -0.02026246611262    0.37380551087968   -0.34916758523270
H        -0.78059333272953   -1.07706520318394   -0.71260739024272
H         2.17879729658841    1.73001791371406   -0.42947099860659
