35
 energy: -49.717337452223 gnorm: 0.112094149935 xtb: 6.4.1 (79825abcba525fcdf90b791dcacef51065a7a4e7)
C         3.60571956905308   -1.44994323231777   -2.63667160411250
C         3.02790743750737   -0.17399845444228   -3.23129965646296
N         4.07945010831670    0.86646880435108   -3.03747525244152
C         3.70470915071430    1.59493911317245   -2.02568049873627
C         4.27434574693888    2.93718973186562   -1.69246536970138
C         3.65405504896846    3.99166681117381   -2.61693261438064
N         4.13682873876081    5.11396133954611   -3.04940149521707
N         2.46656141923570    3.58563672369340   -3.20260168519553
C         1.23891888428276    2.97652256540446   -2.65507935665855
C        -0.07826948847110    3.62760163321164   -3.15080372932479
O        -0.11655648746600    5.03036031562762   -2.88765332460886
C         1.11105315148087    1.51316221570729   -3.13309441013770
C         1.87095287621027    0.41128417297865   -2.34039718160402
C         0.80270264929979   -0.56864009502701   -1.76343405452017
N         0.07888248429665    0.22434848306408   -0.75757349455536
N         2.65820400080702    1.07712499914204   -1.28377586302428
H         4.28854654852840   -2.02052566306657   -3.27734366275564
H         2.66137833127311   -1.97437088422189   -2.45684570577654
H         4.10666024102472   -1.28915421261670   -1.67982626532554
H         2.70054999346987   -0.35131819716649   -4.26479335799718
H         5.33292807122173    2.88671625151796   -1.95990325428686
H         4.13090486058911    3.30415185009014   -0.67426229634182
H         5.06269137172260    5.33403731759559   -2.66140342068970
H         2.34455181786641    3.98545990168010   -4.13596156636761
H         1.36058045643925    2.97527623744303   -1.56340322006627
H        -0.95295571947205    3.18571840368712   -2.66265334495385
H        -0.25311939122546    3.34114163880940   -4.19545080171079
H         0.64843935500612    5.44423072868461   -3.33077847853558
H         1.40659809507073    1.42299341844600   -4.18694116791223
H         0.06207799814394    1.21979775722094   -2.99162601288910
H         1.20142188384068   -1.48404152377843   -1.32696349100314
H         0.17482458475219   -0.97816266704933   -2.56452150761593
H         0.57187764716989    0.34105471262218    0.12431763489351
H        -0.81954344413532   -0.20077164820532   -0.52284213443228
H         2.27166928083604    1.67077221500921   -0.55273046722213
