35
 energy: -49.725283306842 gnorm: 0.117394050336 xtb: 6.4.1 (79825abcba525fcdf90b791dcacef51065a7a4e7)
C         3.54692062375131   -1.45390123590305   -3.01166342273112
C         3.00561110883369   -0.04059579623738   -3.16989176056782
N         4.07177173862678    0.97919548052976   -2.94806009980669
C         3.67409589204843    1.64899798717209   -1.90496520042623
C         4.22543144126353    3.01936421250104   -1.66984715941051
C         3.66979625689267    3.90783858895621   -2.78931357485691
N         4.35736149692302    4.90773913921041   -3.24439351496080
N         2.43907068378446    3.51726513676618   -3.29008977719767
C         1.19994118534368    2.96170796335046   -2.71231706568354
C         0.03745318250814    3.83775267553381   -3.24691892748196
O        -0.10389024632585    5.10151533411854   -2.59778724900738
C         0.94258558100786    1.46078121514836   -2.97165961102853
C         1.86166443997872    0.46066038804047   -2.21336935144160
C         1.04467084493007   -0.71310745837213   -1.58960087251550
N        -0.00568517649443   -0.07434029465672   -0.78137396411100
N         2.62693853595258    1.14658448600497   -1.15345394370066
H         3.65102929385316   -1.72824387708824   -1.95517149827072
H         4.53422092753505   -1.66074511620088   -3.43780401110028
H         2.78600436892370   -2.07670893345564   -3.48649465457033
H         2.57763372695064    0.01697923043832   -4.17995854796408
H         5.30717411923581    3.17042958005762   -1.62886931987121
H         3.73016138013890    3.47199378390170   -0.80856435755930
H         5.22915622895391    5.08021951642891   -2.72823265608210
H         2.20931307584739    4.22407119161726   -3.99261540417822
H         1.21617215216703    3.10030021077691   -1.62278108919750
H        -0.90603190363660    3.30894980602834   -3.07712194414486
H         0.05905067782508    3.88324832693399   -4.34299512253805
H         0.55323010827175    5.73506474430639   -2.94372834923519
H         1.11222093712351    1.28310717961757   -4.04204552646834
H        -0.11111766644526    1.29547186806978   -2.70934839994075
H         1.73035076704466   -1.33471648159734   -1.01437166675986
H         0.50571088984924   -1.30235893979737   -2.34192100210188
H         0.45944600231449    0.27614918692811    0.05241656871531
H        -0.61808586510887   -0.81217959650370   -0.42987197149432
H         2.09344417781309    1.88865390419696   -0.70515688513148
