35
 energy: -49.726534320053 gnorm: 0.104905217538 xtb: 6.4.1 (79825abcba525fcdf90b791dcacef51065a7a4e7)
C         3.61821547926876   -1.47304043253999   -2.60320914765830
C         2.94943292440812   -0.19673024324779   -3.09233755916055
N         3.95211449315336    0.90441643011717   -3.18171124073823
C         3.80981395013991    1.62452416429253   -2.10652577388822
C         4.40700467586272    2.97505519945516   -1.86865175294894
C         3.54389487278186    3.98104627982623   -2.63958987936202
N         3.90402841392589    5.17761668021113   -2.98334548076521
N         2.45489553572915    3.46590738639149   -3.32276059036986
C         1.23228675369003    2.93104273494033   -2.69263793806509
C         0.06114227634415    3.82778884224497   -3.17107168337181
O         0.21244359904951    5.20205323976544   -2.81476952712543
C         0.97744391481894    1.44449916078562   -3.02657631704038
C         1.85803028321450    0.47881821491978   -2.18278749099732
C         0.97128127684054   -0.61419515235742   -1.50951603001351
N        -0.39012922441562   -0.19403819459122   -1.14273065451180
N         2.77829969279089    1.20525745698975   -1.28559903817302
H         4.43614456948137   -1.76331314533320   -3.27329229693227
H         2.89167357637553   -2.26795139632458   -2.40472616880462
H         4.01624842461547   -1.34966063730652   -1.59390500168181
H         2.46509560806903   -0.27853772278744   -4.07490527042260
H         5.37668827312523    2.98923852233117   -2.37281411534129
H         4.38848566208863    3.02547006087649   -0.77819800380601
H         4.84331892874076    5.48938093216866   -2.70633656600366
H         2.17550763080060    4.12770739437743   -4.05068143571332
H         1.42691350443302    3.10996275206511   -1.62649163800600
H        -0.84629452963292    3.41255349104259   -2.72077662725014
H         0.05906305555546    3.83590652466446   -4.26827226084074
H         1.17684509555900    5.35303902062856   -2.81532487391522
H         1.05348938987672    1.27911499031212   -4.10959771284455
H        -0.04486163899399    1.19203114256072   -2.71420454757110
H         1.48480547228624   -0.98818228945000   -0.62415177762861
H         0.92519167888300   -1.40812438798611   -2.26531548085326
H        -0.36859833155332    0.40797476375822   -0.32327147420326
H        -1.00654654392917   -0.99543883501774   -0.99857178574675
H         2.40474588294610    1.67754477662617   -0.46483373313144
