35
 energy: -49.718594988223 gnorm: 0.108728123719 xtb: 6.4.1 (79825abcba525fcdf90b791dcacef51065a7a4e7)
C         3.33148848958845   -1.50953917266157   -2.92057678378571
C         2.95131565773066   -0.04769968580412   -3.10490887834665
N         3.97867342649266    1.03223930037234   -3.04049029099102
C         3.77091725861732    1.72966891636540   -1.96101926958739
C         4.26449490589979    3.14140176938642   -1.93764552769811
C         3.51046379846554    3.87954454077375   -3.05025709518882
N         3.97068038124148    4.97092357356650   -3.57631536452489
N         2.30457123196766    3.37030152518229   -3.50247885235924
C         1.24013829185132    2.97307913765488   -2.56061692621203
C         0.00713192831343    3.73524010019550   -3.11146883184286
O         0.30416849241686    5.00203343037628   -3.69921869206306
C         0.92488881512569    1.46264331362600   -2.63459612943665
C         1.94543397814708    0.46799654534679   -2.01080368116098
C         1.17205217850771   -0.62169663062411   -1.20535606628044
N         0.06015073377103   -0.00970318599231   -0.46128540263919
N         2.81399032372974    1.23292800622271   -1.09426310865802
H         3.97127507389820   -1.61825277813097   -2.03675997763279
H         3.95012347066664   -1.94132653656499   -3.71429744960192
H         2.46301974576602   -2.14224961682505   -2.72618751649523
H         2.57984474675948   -0.01835112019575   -4.13828316199239
H         5.34314501610982    3.23024351226150   -2.09025023900662
H         4.02755449041812    3.62793911661769   -0.98942897242525
H         4.97784341135897    5.14548000530705   -3.46977784525668
H         1.97598379730268    4.03965707961459   -4.20240673997598
H         1.53664294035689    3.20258287896074   -1.52815728394294
H        -0.72979500631987    3.76673173344174   -2.30241100578065
H        -0.32062881083107    3.14220546680657   -3.97448804377301
H         0.24880403931592    5.66297812782081   -2.98301051997564
H         0.96972191224309    1.22797443702786   -3.70650597802205
H        -0.01596649562343    1.26934984319940   -2.10181682871306
H         1.80135244516601   -1.16627569549141   -0.50189451684906
H         0.74283701990269   -1.41739657726756   -1.82689981136086
H        -0.51810281204096   -0.80093500579538   -0.18930823192679
H         0.50852111760820    0.43931488589928    0.33892822801830
H         2.50998470968538    1.78312266572533   -0.29356349546921
