35
 energy: -49.722727898124 gnorm: 0.120097391812 xtb: 6.4.1 (79825abcba525fcdf90b791dcacef51065a7a4e7)
C         3.67042012142813   -1.42872236715937   -2.80752633000656
C         3.03075070637474   -0.08407861865551   -3.12095995610913
N         4.07059688954504    0.96034017016330   -2.88903045718602
C         3.67643748680639    1.66864706996962   -1.87032141671471
C         4.23770644284516    3.02652958633021   -1.59052300166409
C         3.64385032095852    3.85011764201617   -2.73959211050778
N         4.28275583462666    4.87414540874610   -3.21162144675973
N         2.48860979383251    3.48733546629032   -3.41176639189334
C         1.24589032707450    2.93589210340554   -2.83777551931067
C         0.12150060230518    3.81262796029957   -3.44745890414724
O        -0.12706925579570    4.91068256541443   -2.56942981923428
C         0.91283036285252    1.44631118236052   -3.07545444698678
C         1.79310487434762    0.42789363474721   -2.29577878189987
C         0.87919864282841   -0.61746641386941   -1.58423518396038
N        -0.10304235140916    0.06685227964093   -0.72900859406744
N         2.51842896686971    1.20557654033635   -1.27173230961259
H         4.67731951589922   -1.51936270198753   -3.23204442236416
H         3.01274695106707   -2.18404318460272   -3.25035647806399
H         3.75710507088323   -1.54855802108172   -1.72564241990342
H         2.75398686017093   -0.04425680668651   -4.18328307271577
H         5.30836073812686    3.08197172123318   -1.80334380431545
H         3.99749964617842    3.47367322835703   -0.62391178251636
H         5.25224255599452    5.03818100995584   -2.91264756590243
H         2.32071604142842    3.99698079886548   -4.28238623850347
H         1.30492089555505    3.17094360175212   -1.76640906782897
H        -0.78022442292620    3.21005586788561   -3.29770425601195
H         0.25270826863102    4.02217628039870   -4.51647404854447
H         0.67606183800658    5.45155788615010   -2.44573020514789
H         1.17922907133683    1.31125459713791   -4.13227120404298
H        -0.15905437320465    1.44130106327844   -2.83574029956840
H         1.42242755051747   -1.40848011897761   -1.06786030550084
H         0.25629596182242   -1.02411107773587   -2.39065509614091
H         0.37708016581690    0.25330791433577    0.14798239974430
H        -0.90029616378014   -0.51878860032917   -0.47522482727757
H         2.20351593261302    1.51049043920878   -0.35297730753129
