35
 energy: -49.723241947388 gnorm: 0.119336046509 xtb: 6.4.1 (79825abcba525fcdf90b791dcacef51065a7a4e7)
C         3.68013698351259   -1.42964262995841   -2.79779695060906
C         3.06497017965346   -0.07384695862160   -3.11223666977070
N         4.12993303870708    0.95479051792663   -2.92882168956159
C         3.66469256654761    1.71487519638653   -1.97979533718422
C         4.22081611145569    3.06662873608001   -1.66255105811146
C         3.58216597131703    3.82219580339179   -2.83411694207920
N         4.20889239854384    4.76999434749899   -3.45744408399784
N         2.32420772223492    3.49791113785483   -3.31410689247821
C         1.12788607975927    2.93083684043006   -2.66207296827967
C        -0.06463310638846    3.85640635362811   -3.01682763969397
O         0.03331553241954    5.19935962131237   -2.54213981838691
C         0.96207974301078    1.44011108938191   -3.03155437838193
C         1.85096888794355    0.43159272789983   -2.24879101675392
C         1.06589907163120   -0.72382931246613   -1.55383644896503
N        -0.12632945454697   -0.06016606345235   -1.00370535855856
N         2.62008143639748    1.18849416344523   -1.24125786397241
H         3.66471267170255   -1.59482075531360   -1.71393535563276
H         4.72919458347852   -1.25091815592016   -3.05601739660333
H         3.32421536775493   -2.34678744091899   -3.27162482871808
H         2.90993459426963   -0.04480026934281   -4.19935886734762
H         5.29622437054905    3.19919525819381   -1.80604440918036
H         3.97505194320713    3.58393548186072   -0.73305242514187
H         5.17839321113933    4.95609923559739   -3.17173319602494
H         2.16680833429624    4.17141047408184   -4.06745255070452
H         1.14123558846709    3.01317317156944   -1.56680934609914
H        -1.02796290806963    3.56299202686929   -2.58725655924307
H        -0.10687334031077    3.79409957954807   -4.11147505124882
H         0.85481889812972    5.58898901890513   -2.89736990168069
H         1.03684066146021    1.26740040391432   -4.11352111635193
H        -0.08499587701913    1.22276943795340   -2.78091494335116
H         1.83179579871515   -1.18358057502806   -0.92975765148352
H         0.69697284439522   -1.42135955204238   -2.31608687634778
H         0.03119856731378    0.50727687126662   -0.17449490476881
H        -0.83037139201175   -0.77691453458462   -0.82042506404489
H         2.10770371199887    1.78200042539392   -0.59204844489649
