35
 energy: -49.725066706861 gnorm: 0.119890160721 xtb: 6.4.1 (79825abcba525fcdf90b791dcacef51065a7a4e7)
C         3.35691149254716   -1.40003385493064   -2.56262861847176
C         2.90531539922824   -0.01998872976445   -3.01762406850815
N         4.05075210695412    0.93219365828426   -2.93273919106290
C         3.74735082719825    1.75118590824249   -1.96732333969166
C         4.41209717789475    3.08909502460766   -2.03989325086436
C         3.83556371515471    3.81769467469979   -3.25975959106395
N         4.42554626839370    4.80014914589200   -3.86502696077627
N         2.60830477935728    3.37465307605730   -3.72404343080600
C         1.45583895173629    3.02970640219993   -2.86920936133508
C         0.25899252276348    3.97523619471995   -3.14878737689465
O        -0.68401784457099    3.83974758680111   -2.08538705570615
C         0.93922485962115    1.58248459057959   -3.02710319016038
C         1.77211538676552    0.61939583714485   -2.13340015816591
C         0.92557298194974   -0.38743787299178   -1.29438383580794
N        -0.08357136046454    0.40312614255129   -0.57248480287995
N         2.66164180916969    1.35052117800455   -1.20941129847294
H         3.68340117305283   -1.43998777776234   -1.51664303060449
H         4.26861507760104   -1.65108756907435   -3.11481580377276
H         2.70855583230727   -2.21351254584594   -2.89464521278812
H         2.55205814138454   -0.11214757444990   -4.05368896768821
H         5.48771057746181    2.95682934610840   -2.18212101485351
H         4.10582336542484    3.69496097530153   -1.18485126672151
H         5.37251762730966    5.07244236085791   -3.57296668291266
H         2.33648407452397    3.92093761163711   -4.54477012748104
H         1.69981238737388    3.19449107975853   -1.81096418058970
H        -0.15791713331419    3.82474476965232   -4.14986992078436
H         0.52181441973099    5.03928866559895   -3.09744231075604
H        -0.92211331456711    2.89590152437383   -2.01236364699951
H         1.07187560200207    1.40515950128586   -4.10275638805517
H        -0.08524986069265    1.58957944317446   -2.63109045358979
H         1.59884218173331   -0.98418198336651   -0.67952742197720
H         0.45995923683115   -1.04093262797106   -2.04260115382637
H         0.49016669665934    0.71048853818602    0.20901986248846
H        -0.74328247074378   -0.28445977518785   -0.20505869507555
H         2.18037241313521    2.03659711078887   -0.63154188700815
