35
 energy: -49.716189031383 gnorm: 0.119241632518 xtb: 6.4.1 (79825abcba525fcdf90b791dcacef51065a7a4e7)
C         3.35894865301099   -1.44838057306574   -3.20492826887222
C         2.77997202511788   -0.04210058434161   -3.15347862831236
N         3.91089423247467    0.93068889803480   -3.17751130334371
C         3.79454524983644    1.62608366157868   -2.08310851880666
C         4.36699859743472    2.98028734478244   -1.80818216105464
C         3.59743923038712    3.85245713683685   -2.80739207802435
N         3.93662920016959    5.05986025899404   -3.13415299128626
N         2.46574411364682    3.34874831914989   -3.42670901322752
C         1.20681826128375    2.90779649186583   -2.79538169790196
C         0.13110013874531    3.68343638870497   -3.59902659607820
O         0.01027474707909    5.04275679468248   -3.17938958579057
C         0.75131832545307    1.43533872406408   -2.69213696848127
C         1.80032340976167    0.48793271184731   -2.04255105820586
C         0.99628396545842   -0.53998992640292   -1.18745331700042
N         0.51911719615358    0.17441989215681    0.00688016061770
N         2.79251492878906    1.21230852924228   -1.22377600787189
H         3.71601239615557   -1.79339231284964   -2.22730356854393
H         4.14185083742420   -1.57959767243408   -3.95924140842066
H         2.47001062128718   -2.02479603507285   -3.46928041384231
H         2.35331151638296    0.11230151105241   -4.15389614861765
H         5.45162210651094    2.93394082269304   -1.93511121176097
H         4.07418992023020    3.17689102942982   -0.77494255446831
H         4.85595947250652    5.35238906417571   -2.77995485923827
H         2.38364608082159    3.91641806867062   -4.27341827871833
H         1.27940290660639    3.25733019179987   -1.75657586376395
H        -0.78726809293022    3.10319469766907   -3.46283933117028
H         0.49090666550327    3.54629124484302   -4.62647479981214
H         0.87295278186960    5.49864859468573   -3.20796467396457
H         0.50958613815725    1.08395921386069   -3.70414892325497
H        -0.15292625154168    1.55633247492575   -2.08047764195733
H         1.61151943604218   -1.38349267550945   -0.87531268034204
H         0.14064508932358   -0.89647992266461   -1.77437553925707
H        -0.45767951169545   -0.06138332162602    0.16392019882283
H         1.02957702436105    0.10818381830044    0.88894513961487
H         2.47925316422502    1.71432219830228   -0.39546277401394
