35
 energy: -49.718800472351 gnorm: 0.116703086199 xtb: 6.4.1 (79825abcba525fcdf90b791dcacef51065a7a4e7)
C         3.74140741887931   -1.34107135188247   -2.55581647700233
C         3.04945466345710   -0.11530950267815   -3.13391137795930
N         4.02532936804746    1.01231857662413   -3.17869396763055
C         3.71910791710972    1.66201350953093   -2.09289778958641
C         4.30770913484163    3.02282989823072   -1.89571183406353
C         3.61987084188210    3.92133513910075   -2.93054951821658
N         4.08396750221598    5.07709787815286   -3.28897888099272
N         2.42786006631913    3.46683207492584   -3.46957378641517
C         1.31433049682672    2.97988929615255   -2.63240853553494
C         0.10014721764617    3.90929321279910   -2.89047670329875
O        -0.07014324832252    4.88367443439508   -1.86089991913553
C         0.98745000483391    1.53159108942046   -3.05885081220974
C         1.84509538280485    0.47188282042153   -2.30957484744298
C         0.92842817215390   -0.66735814703552   -1.76538021980523
N        -0.33985695807313   -0.15122427043996   -1.22727184895371
N         2.71186840528215    1.12696204346221   -1.31000860634547
H         4.03760380819017   -1.11206024192594   -1.52523446068797
H         4.60127381581059   -1.69164047169567   -3.13622422018985
H         3.01252363083058   -2.15350388226773   -2.58790191279822
H         2.71072154186270   -0.35377307353152   -4.15131464900715
H         5.33729323479068    3.00323017733636   -2.26209903911475
H         4.18517942581307    3.35809922885475   -0.86393911458941
H         5.04006171378397    5.20963494648217   -2.93611154762882
H         2.10509157288198    4.17039645091552   -4.13794740069287
H         1.64885722946140    3.11476553212986   -1.59488255316380
H        -0.75816696083950    3.24152074910070   -2.76396855638238
H         0.10923380034845    4.36687444685286   -3.88770094078345
H         0.71981052886555    5.42163931601884   -1.66231976908901
H         1.19019238585983    1.49603086468981   -4.13760064818012
H        -0.09592851374939    1.35477312889553   -3.09694616941798
H         1.51582984599349   -1.21226014735026   -1.02681103471768
H         0.57908993927819   -1.22095348161135   -2.64582085636268
H        -0.29272665960372   -0.12496553757280   -0.21165097946159
H        -1.10950198432747   -0.72137916375499   -1.58162339134865
H         2.26406701692292    1.49253780577601   -0.47210542082056
