35
 energy: -49.714671716004 gnorm: 0.112979640823 xtb: 6.4.1 (79825abcba525fcdf90b791dcacef51065a7a4e7)
C         3.55366108881675   -1.52747730306763   -2.30667884875426
C         2.92713947117346   -0.30223815276391   -2.95609711966216
N         3.95582652354669    0.74780258174910   -3.21124290808779
C         3.76856485422645    1.65275920253296   -2.29428328464292
C         4.37016598670689    3.01887994964476   -2.19970501506079
C         3.64285169399799    3.87406392201172   -3.24421276608226
N         4.10458333971173    4.96132333316010   -3.77742533129216
N         2.46857435369338    3.37460682178118   -3.78238109511885
C         1.35565420715062    2.99222687993054   -2.89181876475501
C         0.08849332594954    3.83952146878461   -3.17647109595599
O        -0.49382829333851    4.47969999695105   -2.04090123422409
C         1.07870925347574    1.47327381905887   -2.94034251901872
C         1.91554386315105    0.50210747962468   -2.05915275735074
C         0.97298546755833   -0.37569808549380   -1.17862021615177
N        -0.14542450777192    0.48914372760972   -0.77154562219994
N         2.88009314588806    1.31291176886989   -1.28986868363373
H         3.98743386595934   -1.35757919373880   -1.31407949404049
H         4.37707250606727   -1.87963438201283   -2.93685430166671
H         2.81668866892398   -2.32682379753224   -2.20536503288189
H         2.37523753038909   -0.60690577704190   -3.85570608191359
H         5.36867676990595    3.02067253456709   -2.64427236858762
H         4.27986799891189    3.53283092370746   -1.24070832755480
H         4.88464555604991    5.37305751949490   -3.25000191955852
H         2.19923356370156    3.86491970913846   -4.63850865048842
H         1.57334347231618    3.27436412122352   -1.85279527121754
H        -0.70449046435550    3.18525160062703   -3.55294848780798
H         0.34711106643587    4.48994844313514   -4.02144501725113
H         0.08105578658153    4.98256037818402   -1.43303037286398
H         1.33783395409754    1.14109585046104   -3.95453302484216
H         0.05179113556057    1.20999149304349   -2.65303354647841
H         1.51393748784111   -0.77918366326558   -0.32304225930199
H         0.71973361886112   -1.20218700648126   -1.85423864669436
H        -0.81248770934207   -0.19023122511196   -0.41395241973094
H         0.24337549317296    1.03571900752596   -0.00142543116972
H         2.43136553909985    1.93167953338841   -0.61754179281501
