35
 energy: -49.725302904652 gnorm: 0.116280506594 xtb: 6.4.1 (79825abcba525fcdf90b791dcacef51065a7a4e7)
C         3.71129028037354   -1.31195676152879   -2.70831460582412
C         3.07886228548235    0.01462100851849   -3.10291652614589
N         4.12835437614675    1.04672543012438   -2.85958793264313
C         3.62679015323625    1.72505610768359   -1.86805919546325
C         4.04089655457076    3.12665577268998   -1.54995669238470
C         3.67771549854927    3.85996591539996   -2.84675195428328
N         4.54256318162854    4.43657799604592   -3.62083321653383
N         2.39568988787350    3.68689730591583   -3.34118843014924
C         1.23381008027831    3.01762271830694   -2.72473584483812
C        -0.03876483518709    3.81122681695077   -3.11891530315389
O        -0.00411618248625    5.12568122095073   -2.56262846366051
C         0.99147774471144    1.53472058785155   -3.08327150800597
C         1.80683872712254    0.46887632123412   -2.29643345406355
C         0.86016842202562   -0.64719888890297   -1.75561188876266
N        -0.23621979896924   -0.21951464399748   -0.87270702468533
N         2.54777998653556    1.15303617527426   -1.21824596232318
H         4.57338758744173   -1.54726408187254   -3.34368565869357
H         3.01424090973935   -2.15279133542281   -2.78744405592001
H         4.12779377281958   -1.31063778360790   -1.69892332373014
H         3.05701013128053   -0.13816705311963   -4.19052522843350
H         5.09373826377688    3.31821414819829   -1.32747779930008
H         3.36194842237179    3.46726373918846   -0.76574393105365
H         5.46184483878051    4.58284407400471   -3.18525884457252
H         2.38805133931184    3.84055190567098   -4.35224604588425
H         1.25055552963874    3.06961278231918   -1.62765950384297
H        -0.97637162398248    3.33771606045249   -2.81019429020718
H        -0.00941332113606    3.92191410583982   -4.21015594653932
H         0.92113990331084    5.43675077851217   -2.56058715699438
H         1.19686070130993    1.40195640232040   -4.15390763234006
H        -0.01420854205646    1.32049656928830   -2.69710051253486
H         1.49767245900597   -1.34680692657689   -1.21562990165442
H         0.45707134605241   -1.19528117405450   -2.61630884544165
H         0.09467274331443    0.33940865836571   -0.09007594993453
H        -0.80894704736119   -1.02251104684702   -0.60780071148770
H         1.97914586810764    1.56170865649816   -0.47939854018474
