35
 energy: -49.718994663508 gnorm: 0.115355697968 xtb: 6.4.1 (79825abcba525fcdf90b791dcacef51065a7a4e7)
C         3.58717099365445   -1.37245474598931   -2.96856021681716
C         2.98210699199586    0.01038823757411   -3.16124457833017
N         3.99352432304465    1.07957332556901   -2.91678552756420
C         3.64024365618129    1.72332498810355   -1.84179483710842
C         4.23086172435411    3.07518652239419   -1.59522715285156
C         3.62285431411273    3.92450814031498   -2.71785886823768
N         4.30508733605044    4.85799248485123   -3.30335856158414
N         2.42478147930375    3.57781003935745   -3.31988191539628
C         1.21535254587783    3.02644032563944   -2.67864867422925
C         0.06225490279982    3.83982371407840   -3.32161455936344
O         0.13602823003647    5.18175329631649   -2.83971368262313
C         0.96304657079287    1.51236576398910   -2.85240550586939
C         1.85745845671412    0.44923904430615   -2.15259080162477
C         0.95586549025361   -0.71898303446131   -1.64595106153175
N        -0.13850320563451   -0.28140188952920   -0.76539336233341
N         2.65611199815880    1.10038232976596   -1.09536714697242
H         4.43842581937172   -1.55935972276811   -3.63392434827502
H         2.89785422089580   -2.19908686121887   -3.17021290590346
H         3.93081059127891   -1.43883106245749   -1.93422290396842
H         2.52615589215229    0.15115115142172   -4.15069332161620
H         5.31064743196998    3.00264148275479   -1.74841717749664
H         3.92051970144566    3.37357805712289   -0.59192046048502
H         5.26939187402431    5.06665292312965   -3.01565187288020
H         2.09666428051816    4.01054169614604   -4.18647755988677
H         1.20327754365183    3.24894799614840   -1.60305376343394
H        -0.87000649592811    3.33614343453838   -3.04625577667443
H         0.13355549046057    3.68936848680426   -4.40614154541069
H         0.87477256290812    5.53395395946588   -3.37176515202984
H         1.04586312595411    1.29311573530362   -3.92531792088121
H        -0.09049360326425    1.37038952950540   -2.57614346137314
H         1.44325394018006   -1.57172127806373   -1.17400474108329
H         0.38129718251973   -1.07736291261762   -2.50915198147996
H         0.14348317513179   -0.18221266350542    0.20673919745262
H        -0.75316838586083   -1.09698591367590   -0.76327151306220
H         2.29890584774591    1.29176906538676   -0.16154256937500
