35
 energy: -49.712683502164 gnorm: 0.132932133508 xtb: 6.4.1 (79825abcba525fcdf90b791dcacef51065a7a4e7)
C         3.72070766602831   -1.43992045679189   -2.81150363406268
C         3.10248809933351   -0.09612071089398   -3.16856278917381
N         4.17902900494077    0.89945592960688   -2.89330141001424
C         3.77111077804632    1.63810726065940   -1.90192592642407
C         4.19380834864006    3.03673826147505   -1.58206185697045
C         3.57021360812601    3.82271580412592   -2.74167001697636
N         4.08400565039309    4.80698744770031   -3.41015477675748
N         2.32748914230419    3.45623854193220   -3.23089405149565
C         1.09436835165744    2.94954728828524   -2.59797695274193
C        -0.03004792829330    3.87042406308307   -3.13863008125904
O         0.14203745608665    5.26798011101748   -2.90268589293901
C         0.88804803070907    1.45561182353166   -2.93243215142821
C         1.89336566864796    0.44039670446792   -2.31710591680295
C         1.06381393554454   -0.63186780783821   -1.54484346044614
N        -0.18306467629878   -0.01794064293117   -1.06225756895523
N         2.67703043775798    1.09614690669506   -1.25154589811866
H         4.61383301837475   -1.63589441634929   -3.41664741070992
H         3.08312956086863   -2.32165455677670   -2.93471568741576
H         3.98351417049194   -1.40053209033630   -1.75238656609370
H         2.62988445065603   -0.08435204405744   -4.16013815681128
H         5.28157622418265    3.13721514889095   -1.61856641991013
H         3.90842800022124    3.49174245742490   -0.63153398876738
H         5.03471578870797    4.93479371510519   -3.04135488275685
H         2.23185343731492    3.80770789420187   -4.18652405477016
H         1.14683577724773    2.95873099258411   -1.50083397856301
H        -0.92883325554455    3.78635388730841   -2.51915874853418
H        -0.25310432275809    3.73440256449597   -4.20430513291227
H         1.09157052634709    5.45151442447611   -3.03523537014428
H         0.94103538397402    1.42949828808845   -4.02905452491883
H        -0.16969135595186    1.26326180152568   -2.70745721289642
H         1.67571772310848   -1.07493016483220   -0.75953278042808
H         0.68081938029538   -1.39995397679557   -2.22824635436215
H         0.08303275020217    0.43438815658770   -0.19105876441763
H        -0.87822367976155   -0.75380724014642   -0.92716723678019
H         2.11674908695544    1.74036757759235   -0.69718317699458
