35
 energy: -49.717915631160 gnorm: 0.127654732156 xtb: 6.4.1 (79825abcba525fcdf90b791dcacef51065a7a4e7)
C         3.54545587509387   -1.33039469636663   -2.53968111787849
C         2.98038043919021   -0.01034839767655   -3.04331982671480
N         4.06399960055726    1.01329282147294   -2.98159327742043
C         3.76568474341861    1.77782733751810   -1.97098769140724
C         4.29131267733170    3.17144218710115   -1.83421092124515
C         3.86263705863350    3.62614997999617   -3.23449669374168
N         4.56621947468500    4.19565361462431   -4.16201068994816
N         2.52431135814972    3.62099318427974   -3.59068144688134
C         1.38695576852080    3.15441761691491   -2.77420336063051
C         0.09700581729562    4.01084452177017   -2.85902009324636
O        -0.85414176906538    3.64306278871952   -1.85976996825369
C         1.04581016177220    1.69246290705347   -3.13831822834127
C         1.79941686330497    0.66130035626976   -2.25021214803695
C         0.92218229125952   -0.31770384296677   -1.40979151757876
N        -0.07671746376565    0.59140765745291   -0.82650981512218
N         2.66934075169963    1.32503864008653   -1.25913149346108
H         3.82162818019260   -1.34280018136914   -1.47861908579502
H         4.44640778092251   -1.56325016843091   -3.11692116300742
H         2.86000748292893   -2.17183068251864   -2.66007066416447
H         2.68286798598533   -0.16263832492215   -4.08974638110778
H         5.37823723533443    3.07813720819060   -1.76671034080263
H         3.81424434693794    3.74153878394579   -1.03460496905449
H         5.57124709145022    4.12375904245207   -3.95965400717060
H         2.44034765248701    3.78406186912842   -4.59679490293104
H         1.79443568864965    3.18389349022235   -1.75457050100559
H        -0.37357714947064    3.81145379151967   -3.82722595642418
H         0.27572722504535    5.07897213412908   -2.68272097715546
H        -0.98973207610840    2.68604691150505   -1.99616329501662
H         1.38141633750426    1.61485762797376   -4.18111069139848
H         0.00914276377784    1.43176467427984   -2.88576722408042
H         1.61626057838743   -0.94700243645657   -0.85330075317438
H         0.28158507044951   -0.89166795718571   -2.09087969465466
H         0.37031188795474    1.19612724868931   -0.14176496168919
H        -0.89158090216708    0.09818393444844   -0.45810375979897
H         2.26130629831275    1.91531030294639   -0.53709220695042
