35
 energy: -49.725452405127 gnorm: 0.102350743656 xtb: 6.4.1 (79825abcba525fcdf90b791dcacef51065a7a4e7)
C         3.60118921490707   -1.35152234572499   -2.70828959173298
C         2.77738243086854   -0.10628987016378   -3.00192694016043
N         3.70025013779359    1.04250949941217   -3.23528760482676
C         3.78403399733786    1.75634224333566   -2.14981467345802
C         4.31448438382067    3.15360746479263   -2.09127237400777
C         3.54241310432597    3.89181840604511   -3.19139632962645
N         4.00714606841896    4.74308307785325   -4.05105703084063
N         2.26787505406629    3.41271616077146   -3.44442524185323
C         1.20863024998283    3.05804728399900   -2.47999930271894
C        -0.01961002842665    3.95649096882759   -2.77808750869481
O         0.37178291575737    5.29057349368430   -3.10286640657880
C         0.84089517792190    1.55770041697679   -2.47869500303041
C         1.83964167961833    0.51395489172328   -1.90158812631475
C         1.25675637046757   -0.54807629704822   -0.91841419069861
N        -0.20938352175106   -0.66751231497900   -0.94431415054360
N         2.88791728902629    1.28677820248845   -1.20630450929641
H         4.12961770816466   -1.23416802963841   -1.75473363088890
H         4.29467015774084   -1.39635366396462   -3.55458529467334
H         2.97908678185458   -2.24577775815414   -2.63316647277919
H         2.24392144629998   -0.31168138241272   -3.93998243680929
H         5.37886909068361    3.23952363396905   -2.32444771577071
H         4.13606669004787    3.57850343422618   -1.10152264327752
H         4.99054341387825    5.03436145341570   -3.98560381631212
H         1.99524314021909    3.72429276157908   -4.37957092633228
H         1.61795818404967    3.38405775594160   -1.51422101811559
H        -0.68796760000082    4.03618607265318   -1.91462098681812
H        -0.55941808158896    3.47694658216626   -3.60426168728055
H         1.28148918875793    5.24236894900080   -3.45354871193158
H         0.61076560922606    1.24258860620029   -3.50524998264354
H         0.01174373064973    1.62216154571745   -1.76121502434004
H         1.65814413467735   -0.37530825799845    0.07982546705696
H         1.69059252676535   -1.51609599892482   -1.19842267228846
H        -0.41717114720566   -1.05124296065283   -1.86299343707970
H        -0.61091958254329   -1.25118978503476   -0.20872970080440
H         2.58663867572268    1.79160375923366   -0.37525948829460
