35
 energy: -49.720642348064 gnorm: 0.122872999166 xtb: 6.4.1 (79825abcba525fcdf90b791dcacef51065a7a4e7)
C         3.60861834670870   -1.41217185871227   -2.75396777416384
C         2.98042973716818   -0.09786295292327   -3.19380365276110
N         3.98547390932082    0.98824891475059   -3.00372677731116
C         3.73351110239325    1.62792537486165   -1.89821459795742
C         4.22837947840040    3.02090079813343   -1.67044349477199
C         3.59589878466140    3.93888599575451   -2.72334117320812
N         4.13774769140102    5.06027066651090   -3.08186727069848
N         2.45194294166056    3.38086375183452   -3.26922214047435
C         1.19565428343981    2.99026092091759   -2.60058530675032
C         0.04092192906926    3.78341252836691   -3.26551805621994
O         0.11792180064603    5.20619717628122   -3.17495965957761
C         0.95619117900579    1.50717228193809   -2.96027552925834
C         1.83129888664568    0.42976442384702   -2.25790064800009
C         0.97532499669239   -0.70110206047202   -1.60771126690276
N        -0.11911529804486   -0.13662450682267   -0.80268487158280
N         2.65953357778842    1.07777943278431   -1.22172461500239
H         4.35158619057901   -1.74865038936809   -3.48681063475548
H         2.79319286103858   -2.12097945563677   -2.57559976512658
H         4.01930997890270   -1.35713291927467   -1.74369515704941
H         2.78459092677130   -0.07334712451889   -4.27443334880734
H         5.29454459459298    2.96514509123562   -1.90464509078450
H         4.04324672063109    3.30647621754734   -0.63306867015391
H         4.98830041529129    5.31453258043975   -2.56407532463381
H         2.27081442282635    3.77926245320635   -4.19354704564158
H         1.17628085544275    3.29644454966724   -1.54586442805282
H        -0.89829997889516    3.59871851710995   -2.73412561426403
H        -0.06016087820138    3.50004925468687   -4.32069901286954
H         1.03876720699365    5.52959818042896   -3.15699335910169
H         1.04082001312097    1.46500657510143   -4.05440998965082
H        -0.06069098846854    1.31063345332685   -2.59455976503917
H         1.62476577228669   -1.41797623625093   -1.10595291266431
H         0.62073625390396   -1.26139725822920   -2.48179182530009
H         0.06992368004059    0.26493068946470    0.11241852242640
H        -0.71865559150769   -0.95009981250403   -0.65502157391785
H         2.24662071940235    1.76599687331145   -0.59553518213532
