35
 energy: -49.716733231434 gnorm: 0.104846675937 xtb: 6.4.1 (79825abcba525fcdf90b791dcacef51065a7a4e7)
C         3.49675534943087   -1.45460864867799   -3.01793869297357
C         3.05117112284721   -0.01341756233544   -3.21770693325476
N         4.15005044992385    0.96083157143033   -2.95467686137914
C         3.78012295045154    1.62184089703599   -1.89588098649843
C         4.25824737788689    3.01091856141478   -1.61478460160121
C         3.55874815513247    3.88825937421291   -2.65991430976340
N         3.99648622039760    5.06146821871895   -2.99399693121699
N         2.47698080811463    3.47682274905474   -3.42051220077448
C         1.24629714425291    2.95396869594929   -2.79605377791882
C         0.04582560544587    3.83533405499368   -3.22813593537418
O         0.01065357686910    5.05720060586406   -2.49040224010640
C         0.96033475339711    1.45985654372726   -3.06461642658299
C         1.89953521748958    0.50137528689382   -2.27774426699662
C         0.93742006901524   -0.62380318059873   -1.78519542527453
N         0.12828474003027   -0.15959103299314   -0.64751838193727
N         2.66674922972040    1.17165140565220   -1.20925493489828
H         4.04007908542193   -1.54777635599587   -2.07010075024194
H         4.16301455823540   -1.70026976868116   -3.85154012887071
H         2.68162657169739   -2.17810303587136   -3.08478628457742
H         2.66386663944262    0.10804086552534   -4.23847012131903
H         5.31535489121047    3.16326265398695   -1.84712511351729
H         3.84075710736905    3.25784270565681   -0.63667196083809
H         4.91351673940466    5.38866516815304   -2.66506724020446
H         2.41103485477515    4.32442068831091   -3.98896138265101
H         1.25591023604363    2.93425783010937   -1.69783751831307
H        -0.93364873228967    3.41397557041808   -2.97971163624279
H        -0.05206065593963    4.00173167282520   -4.30825140454516
H         0.90492120012390    5.41722820791961   -2.33699819365102
H         0.90640601608855    1.29915800381025   -4.14966842859004
H        -0.01125105664292    1.29598812675374   -2.57923716597073
H         1.53262781934251   -1.50853864000044   -1.56066425987758
H         0.26753450531442   -0.75829720156716   -2.64359241558871
H         0.46706531840943   -0.55333559390843    0.22688968919039
H        -0.80682538876703   -0.56274947149239   -0.72515473000201
H         2.27035254807641    1.80887327913320   -0.52145306976507
