35
 energy: -49.724243531699 gnorm: 0.121351963219 xtb: 6.4.1 (79825abcba525fcdf90b791dcacef51065a7a4e7)
C         3.62152569918162   -1.45449106614180   -2.64888718613029
C         3.09833093667452   -0.11222524045189   -3.13886078420378
N         4.08063171354446    1.00956859155922   -3.08840508162550
C         3.76621949136111    1.65355794809371   -2.00155132430211
C         4.10322307002365    3.05055989135955   -1.58685972912376
C         3.59563049946672    3.80684853836462   -2.82043156575278
N         4.38247597106764    4.51463082482305   -3.56847117882739
N         2.26359331685349    3.85562914519695   -3.19634013135230
C         1.19499549325996    3.00342720093248   -2.63978149493300
C        -0.09618744110982    3.76730301483234   -3.03217441947122
O        -0.07417653237312    5.06916031608350   -2.44640223812880
C         1.10876134751690    1.55637789171325   -3.17352627600908
C         1.87708101750659    0.48528843504186   -2.34744884938494
C         1.03273136695852   -0.60676729992188   -1.62027316608629
N        -0.01562641691546   -0.03238239768008   -0.76264276507520
N         2.70521003235079    1.11202508376250   -1.29818222450840
H         4.52830399506154   -1.69457083069413   -3.21668337226321
H         2.83515246430970   -2.18894278092713   -2.85220933084878
H         3.83528871879849   -1.51862390365034   -1.57999055384301
H         2.71888678672148   -0.28680137789006   -4.15486261916785
H         5.17174882616004    3.10708062399089   -1.36386813275400
H         3.42472753606850    3.50182729423586   -0.86024046004551
H         5.34653808082547    4.49782879850188   -3.21280348303754
H         2.07368671809093    4.26968017128022   -4.11198352504943
H         1.23347481451032    3.10813486941614   -1.54702556326280
H        -0.98954452300046    3.30458869477548   -2.60039186276285
H        -0.14895843997253    3.72641321924869   -4.12737420824471
H         0.79515372889950    5.48606269952982   -2.59912604143085
H         1.59556039699170    1.58460489829473   -4.15754869898418
H         0.04279124928111    1.32947818620571   -3.31008810223072
H         1.66235961477893   -1.23101425134084   -0.98676912911397
H         0.61675648623366   -1.18595085990041   -2.45405491649051
H        -0.57532421730350   -0.82793979188886   -0.46561861927616
H        -0.60669125828300    0.65563646216363   -1.23196939289779
H         2.31251955947340    1.57818182288079   -0.48286292088564
