35
 energy: -49.724358158829 gnorm: 0.108862695764 xtb: 6.4.1 (79825abcba525fcdf90b791dcacef51065a7a4e7)
C         3.54619585619879   -1.46811367501963   -2.73509488742199
C         2.98077594247150   -0.10382547346744   -3.10184070032447
N         4.01733693325366    0.94081889398316   -2.85660310317206
C         3.71119343976053    1.62478069201430   -1.79203705672809
C         4.39136798806685    2.95034131970260   -1.66010308760753
C         3.69767534442595    3.90341622814502   -2.64079720166969
N         4.28990360061203    4.93743459321284   -3.15042112706516
N         2.46848406002589    3.70186685427010   -3.24617022013817
C         1.22553976311636    3.04839285037022   -2.79233305414004
C         0.05761982330285    3.76257001826048   -3.52071882462439
O        -0.07353453467393    5.10740493710971   -3.05956425318849
C         1.01086719940241    1.52853097862601   -2.96613498752192
C         1.81226293823191    0.43820051373991   -2.19873935420840
C         0.89878634789204   -0.69178713661279   -1.63042164703887
N        -0.15517383792004   -0.13422517443968   -0.76856634073511
N         2.57036256192081    1.16344405948535   -1.16005570165301
H         4.53541644872282   -1.48149135659055   -3.20789647977436
H         2.96035796827944   -2.36156056251510   -2.97527963162684
H         3.62286854977817   -1.52398357893460   -1.64727710613088
H         2.63002072414032   -0.13611279598350   -4.14234189634382
H         5.41424760793233    2.78257127800875   -2.00685610158138
H         4.26481587662508    3.36420983931518   -0.65777009766927
H         5.26992242296184    5.08109431159526   -2.87633617464563
H         2.39432781770828    4.29261950757042   -4.07768555622426
H         1.15306589818593    3.31773111238693   -1.72989984027663
H        -0.90070199887902    3.25012367840060   -3.38788196943792
H         0.28808161434405    3.79115806124576   -4.59309442113922
H         0.74376289209289    5.36600929671022   -2.59264245787674
H         1.03084549078171    1.10678776940940   -3.97994155022336
H        -0.03320156834897    1.43351389462472   -2.63854217606523
H         1.48338496338919   -1.45256278573827   -1.11379002220721
H         0.46151173111269   -1.07894734429808   -2.55917274675801
H         0.23056534079686    0.07190735716983    0.14964453129169
H        -1.02128299247361   -0.66684715085872   -0.67283835382584
H         2.04103114621744    1.85423292253603   -0.63197190408295
