35
 energy: -49.722061219637 gnorm: 0.112896902672 xtb: 6.4.1 (79825abcba525fcdf90b791dcacef51065a7a4e7)
C         3.49710978124318   -1.41178303828035   -2.81590132285806
C         2.90463211060566   -0.05155363656183   -3.15388151003733
N         4.03797206191537    0.87640992234925   -2.87049808776524
C         3.65189536115484    1.65155975860308   -1.89843025107206
C         4.10329888845614    3.01129215131144   -1.46887519760632
C         3.65879651340434    3.93433267769215   -2.60981163906521
N         4.14886964617787    5.01163020553764   -3.13792443652547
N         2.52239178971736    3.46297047860940   -3.24574543298483
C         1.21384141349276    2.97074690759492   -2.77317924815854
C         0.10207760806972    3.82107608508813   -3.44067707057216
O         0.35108664725415    5.19814671035625   -3.15762770435471
C         0.90963837059299    1.48281185527551   -3.05563504105395
C         1.73899910480796    0.45880936185839   -2.22887552939108
C         0.86696578589237   -0.70053545289436   -1.65461602993782
N        -0.00761174716968   -0.24272558872703   -0.56373280595864
N         2.53289888724290    1.19503729627730   -1.22525785049656
H         4.43816822444112   -1.47831201076652   -3.37470413426141
H         2.93645773356906   -2.26934790688134   -3.20241632834138
H         3.78262541999437   -1.56261008510827   -1.77279074399207
H         2.78214489610724   -0.07530744850968   -4.24527833441185
H         5.19400848112797    3.01486010432960   -1.39811522838348
H         3.71715749439039    3.37406215342553   -0.51427228643412
H         5.12777807714000    5.24519019169943   -2.92963241325282
H         2.40889673879372    4.03221941786547   -4.08775500088749
H         1.09928423070751    3.28386455325599   -1.72656859495283
H        -0.84290096464268    3.48932131611460   -2.99843068908686
H         0.00751155503892    3.46217951035256   -4.47323207388370
H         1.29922626896084    5.40401018155968   -3.26495313552573
H         0.96916736933628    1.29108011468557   -4.13534121456380
H        -0.14251376368993    1.35222396089063   -2.76867241439320
H         1.53543474805405   -1.51215943418018   -1.36850573357933
H         0.29304924903794   -1.08832357519242   -2.50545142599781
H         0.39525953045822    0.50553436009530   -0.00498571378113
H        -0.24304691154704   -1.01554325843578    0.06102171559857
H         2.01713902009510    1.74291098767780   -0.53963431376634
