35
 energy: -49.722850864967 gnorm: 0.111230392883 xtb: 6.4.1 (79825abcba525fcdf90b791dcacef51065a7a4e7)
C         3.63920851391736   -1.43195714445938   -2.72950958130746
C         3.02472449438915   -0.10813300661775   -3.16007140234184
N         4.02842277418979    0.98427809387665   -3.00161084463074
C         3.65141835832014    1.61568397030200   -1.92735636307098
C         4.27871416617996    2.95567898004801   -1.70811168055248
C         3.63644992128628    3.96017261412179   -2.67237893386155
N         4.18154629490391    5.04787647110663   -3.11893806238759
N         2.48427638427272    3.57200352153984   -3.33557628941059
C         1.27399783192593    3.01713169751353   -2.69898375554763
C         0.06203389480437    3.78298864210007   -3.28994769800391
O        -0.02826488243657    5.18584543447227   -3.04037826364150
C         0.98345473248772    1.50956586422835   -2.86957531893184
C         1.84399795995782    0.37660285794810   -2.24043952292214
C         0.89550267801088   -0.72041553606633   -1.66493635102059
N        -0.07327608593057   -0.13746248617119   -0.72358868948327
N         2.64190047998281    1.03045192725024   -1.18431931035044
H         4.51401699274580   -1.57501078776816   -3.37489587197874
H         3.04476163671639   -2.32724776085352   -2.93981816178511
H         3.95442063682340   -1.47682055283035   -1.68501149287371
H         2.80696259312751   -0.24752678158745   -4.22771532374046
H         5.35341540242818    2.94954736874606   -1.90722666863252
H         4.10428803210392    3.21472053780131   -0.66195348017362
H         5.06356149162311    5.31850644919690   -2.66616199464965
H         2.24470809377584    4.21450724553014   -4.09432631223193
H         1.42059660408790    3.31094083270220   -1.65077343277144
H        -0.93348889789312    3.50389699713203   -2.92985074759790
H         0.01171506995774    3.62735995540409   -4.37492099526476
H         0.69213062603564    5.67371382763345   -3.48296385079076
H         0.71820702370787    1.30430516135001   -3.91531998296870
H        -0.02501123372733    1.49802591992822   -2.43450279438986
H         1.48090140458135   -1.55090909680922   -1.27119514494713
H         0.40325190239634   -1.09294434420591   -2.57190502523591
H         0.20590021937244    0.04340528760951    0.23752731454959
H        -1.00655745859571   -0.55193230049155   -0.73757924573393
H         2.21068058247768    1.35868070498233   -0.32259503202719
