35
 energy: -49.715595894232 gnorm: 0.101893324831 xtb: 6.4.1 (79825abcba525fcdf90b791dcacef51065a7a4e7)
C         3.46731082865813   -1.53983153523279   -2.48095800888758
C         2.96301988103412   -0.25566705325924   -3.12290557858400
N         4.06993965899319    0.74209350665932   -3.19421110670374
C         3.95239755813655    1.60390663445322   -2.22555719559341
C         4.50017926996738    2.98978320417944   -2.09735323219317
C         3.77414218375430    3.88790628918865   -3.10609861928570
N         4.31858759180893    4.72239327674427   -3.93486606210259
N         2.43137231461891    3.66882729763326   -3.36490997607734
C         1.29897811754471    3.03139876647354   -2.66542786244133
C        -0.05604421427298    3.64560303893608   -3.10280575534863
O        -1.04145735762763    3.95568229943728   -2.11728166234633
C         1.28229213742843    1.54407470467582   -3.08239342262490
C         2.00560901960701    0.52873494641623   -2.15188303108044
C         1.00885304381633   -0.17096025117569   -1.17658783134853
N        -0.05293457659004    0.69083341612595   -0.63398236183647
N         2.95129911718506    1.29959153707481   -1.32061452577086
H         3.56296624861880   -1.45740877018096   -1.39176830445161
H         4.41240982404177   -1.83516843066290   -2.94861823919205
H         2.74274358766304   -2.31232915126035   -2.74665975617385
H         2.43663153141145   -0.48028420170841   -4.06054989629509
H         5.56992020007159    3.03880180891580   -2.31625653160777
H         4.32142308103338    3.31624944066004   -1.07098096980830
H         5.32709509824846    4.83439258949398   -3.77187425575803
H         2.22685372051655    4.40898931517508   -4.04036385061608
H         1.40030422857658    3.14878721563080   -1.57799379232819
H        -0.53754538867151    2.94215124621078   -3.78978449527825
H         0.13858863729463    4.58660597634917   -3.63247627022318
H        -0.87338314348337    4.79541570603049   -1.64880954725932
H         1.79234849721051    1.50312729128653   -4.05411151203946
H         0.23710363953460    1.23551048365082   -3.21948466083281
H         1.52003741596629   -0.41682229254409   -0.24616547584027
H         0.52865602975977   -1.06475127854137   -1.59399546558707
H        -0.74213151670845    1.07634679496023   -1.27490634090912
H        -0.44831256620921    0.29386090965823    0.21988188850862
H         2.48394080960827    1.99593354625680   -0.74360715031353
