35
 energy: -49.722912072351 gnorm: 0.122020030136 xtb: 6.4.1 (79825abcba525fcdf90b791dcacef51065a7a4e7)
C         3.51206205066500   -1.41930304809382   -3.08219761816618
C         2.96294847608017   -0.00304787725853   -3.17264092897275
N         3.95811749470674    1.08152372462341   -2.92927895261019
C         3.65301931832867    1.70570302556428   -1.82830496381514
C         4.21067829790096    3.07032882441325   -1.57538632434809
C         3.57436333176213    3.85106887279651   -2.73161745924910
N         3.98056744702826    5.02272300775793   -3.10827329513626
N         2.47775142477853    3.37507250902479   -3.43081674663226
C         1.22055141066089    2.96334343257566   -2.77672633252656
C         0.07100225882271    3.88021319311042   -3.26918790951532
O         0.38527898167407    5.22578674359706   -2.90987201089938
C         0.93005444899651    1.45268693066160   -2.91743863388972
C         1.83409262034116    0.43282769880373   -2.16740278349700
C         1.08253193834001   -0.77141417797007   -1.51990408596864
N         0.01853771603174   -0.27867461036682   -0.63129507286701
N         2.58324799384752    1.17213982924856   -1.13215367554307
H         3.86740556830664   -1.64887266241083   -2.07061151202083
H         4.37140050365455   -1.45457545568793   -3.76001422938870
H         2.73271498490126   -2.11432355200783   -3.40143469740983
H         2.39298459262138    0.15355954886554   -4.09856193187871
H         5.28188902672873    2.93581770629936   -1.74591925046005
H         3.92286622950441    3.34462948281651   -0.55857888961150
H         4.80217812237818    5.53754124123776   -2.76751584531376
H         2.28803234713927    4.01064840404976   -4.20924822015186
H         1.34716825209204    3.26631747607399   -1.72852082156844
H        -0.87960977129186    3.63640059615212   -2.78388411554573
H        -0.01774500363874    3.74489949864293   -4.35442219446058
H         0.90228087884875    5.61806703103414   -3.63904446959453
H         0.89571171636981    1.13421832510839   -3.96789973222479
H        -0.06335193977657    1.32260996740169   -2.46727355579904
H         1.80620856223845   -1.36398864432356   -0.96080570916792
H         0.68318030693957   -1.34607020313504   -2.36487120349085
H         0.40284869986035    0.01804482051898    0.26238226463109
H        -0.54512007222637   -1.10398824011771   -0.42119415304566
H         2.09256940073060    1.77574432600931   -0.47553384377177
