35
 energy: -49.722196814669 gnorm: 0.117844451479 xtb: 6.4.1 (79825abcba525fcdf90b791dcacef51065a7a4e7)
C         3.64845495618814   -1.44352137011837   -2.82987335686048
C         3.11405731621028   -0.05052417977574   -3.12897606275798
N         4.15428342014346    0.97589416123357   -2.82851468457811
C         3.68681748703617    1.66084643235133   -1.82494883645580
C         4.14545028149550    3.07147394967674   -1.63274867636871
C         3.65606701481823    3.87124575178071   -2.84608756681375
N         4.19199825003383    4.91446890237624   -3.39754742211823
N         2.38965771114939    3.58235545859933   -3.32646212165300
C         1.21987725048327    2.93045931557742   -2.70633950947483
C        -0.02836076795358    3.74320147566874   -3.13759796925482
O         0.08508454460967    5.13041508605867   -2.81945568087202
C         1.02066773506650    1.42885417032839   -3.00927361667363
C         1.88187880239979    0.37898258486809   -2.25030271819800
C         1.00839079983082   -0.60981989268263   -1.41748526255526
N        -0.17781579736182    0.07337154447408   -0.87835138124624
N         2.61864513967874    1.07028885488972   -1.17381399973558
H         4.48759229892241   -1.67906764833732   -3.49518843426286
H         2.83698215935715   -2.15943075262334   -2.99758661716197
H         4.07887694154226   -1.47662689385910   -1.82688352476620
H         2.91653549710280   -0.07991176458639   -4.20917785536198
H         5.23146131070206    3.03641527217860   -1.51435074715833
H         3.70090989997735    3.48493656478079   -0.72533117992250
H         5.10651765431287    5.07572395792228   -2.95726497266378
H         2.20138809092352    4.00525805011748   -4.23839059570943
H         1.41648439078698    3.14428640645473   -1.64700788211109
H        -0.85730978079732    3.27012245866551   -2.60125164996152
H        -0.04496826016365    3.54686612975004   -4.21699407745257
H         0.81510902056581    5.55918541552903   -3.30534407213195
H         1.31763604866509    1.22887575790427   -4.04748779003777
H        -0.06205937503409    1.25645982235938   -2.94288797033700
H         1.52923994185881   -1.06899775369052   -0.57765479379734
H         0.70281859288777   -1.49195900174867   -1.99379847474401
H        -0.56784275146896   -0.56108755156426   -0.18572076521756
H        -0.93192964851841    0.20502269595577   -1.55435090640896
H         2.04356986062815    1.63164897126764   -0.54898063725805
