35
 energy: -49.721631288455 gnorm: 0.107981700727 xtb: 6.4.1 (79825abcba525fcdf90b791dcacef51065a7a4e7)
C         3.56244080502757   -1.41549367883276   -2.73184277210858
C         3.02717897918835   -0.08538205177064   -3.24153121114407
N         4.03283895985303    1.01313742161237   -3.15329861070678
C         3.69341517736115    1.65990406322768   -2.07565634997839
C         4.14985621366466    3.01756394191326   -1.64487080124408
C         3.69077977368588    3.96774304551151   -2.75740425905470
N         4.35625937350341    4.89312249214200   -3.37421427185250
N         2.40426815043592    3.74334401629785   -3.21842787923651
C         1.24886906792397    3.06172052119348   -2.60332678379619
C        -0.06172381964758    3.83712413696267   -2.89611914800685
O         0.14015579923105    5.17986903548755   -2.45484063810604
C         1.01424852509108    1.60674212979326   -3.06621190802578
C         1.82202949658063    0.46150000807786   -2.39103629883076
C         0.91754920342395   -0.68347706277505   -1.83855146495066
N        -0.04732880206926   -0.42585437412019   -0.75820755689978
N         2.70882296445798    1.01514052747833   -1.34861771830125
H         3.65981286679200   -1.33721527238561   -1.64249945572483
H         4.56465787006422   -1.66690770433953   -3.09446382423463
H         2.84177069513504   -2.19324891296884   -2.99276241645255
H         2.72648672396482   -0.08048581855938   -4.29807019787734
H         5.21483406061046    3.04067162702854   -1.40001297194426
H         3.63188831630040    3.18823244059921   -0.69906134216249
H         5.34463371781207    5.02756021126764   -3.12674666573590
H         2.26170398901127    4.17767091565164   -4.13327278533416
H         1.30564856429242    3.22341442631144   -1.51834242304248
H        -0.93806625566145    3.40849788625752   -2.39919755481240
H        -0.24986782574140    3.86270486790680   -3.97679800601751
H        -0.13354002549630    5.84122186487760   -3.11859533059634
H         1.27441022296874    1.46987785435482   -4.12434908454141
H        -0.04141385933158    1.40372635786388   -2.84085349767948
H         1.50889269285995   -1.52300614875699   -1.47393227042359
H         0.34656388487880   -1.02473842286308   -2.71101760624046
H         0.39807654659448    0.18753477845751   -0.08014829555529
H        -0.29431096239413   -1.28757524203110   -0.26888961957668
H         2.27286711777696    1.60393542479160   -0.64185285883223
