35
 energy: -49.724849386206 gnorm: 0.105360965866 xtb: 6.4.1 (79825abcba525fcdf90b791dcacef51065a7a4e7)
C         3.46255437079982   -1.61913437695099   -2.32364800639970
C         3.00771168966607   -0.36045681917425   -3.04775670136233
N         4.09830163682960    0.65379615541612   -3.13599774596934
C         3.91089402728952    1.52180093496662   -2.18401324221082
C         4.59827696809275    2.84767613786939   -2.10207096771546
C         3.70009274662483    3.98917470114804   -2.59356693193664
N         4.10630603670663    5.20827353971596   -2.76218952877802
N         2.41980957251085    3.76765346568221   -3.07295524015609
C         1.22385603626073    2.97053719833527   -2.73798099156450
C        -0.03501848388295    3.61464230058194   -3.37437346938010
O        -0.53359046739499    4.76047943847585   -2.68377287097703
C         1.26890553384154    1.49800288842285   -3.20261503171477
C         1.91411189395234    0.44625705613068   -2.25525492941291
C         0.87019543135144   -0.46854327213426   -1.54274152653038
N        -0.26359589168308    0.32054665861655   -1.03642512527378
N         2.83936072475196    1.18748234465506   -1.37545005002181
H         4.30916998669589   -2.06363856073001   -2.86024442408334
H         2.62322703039398   -2.30000008017108   -2.49998177306308
H         3.64990000804834   -1.38564072514183   -1.27353848906134
H         2.74310982932630   -0.44806490547866   -4.11031263338425
H         5.40704919614407    2.87929976125851   -2.83661475030948
H         4.87969495607298    3.04682876778584   -1.06615777854262
H         5.11131765666948    5.35579210221002   -2.60602461755489
H         2.05472828314678    4.70767330199544   -3.24320203489127
H         1.09568473631974    3.01466175533544   -1.64794199143999
H        -0.82376276118619    2.85771158502381   -3.43408904684914
H         0.09835559150934    3.98574302398606   -4.39829482056636
H         0.03201006245553    5.52596632960346   -2.90055183853932
H         1.84166368765114    1.53572913484434   -4.13888157920987
H         0.23007598553350    1.22928983104512   -3.43724524750497
H         1.38160989645535   -1.10889416161915   -0.82451499956078
H         0.41738855969582   -1.09295232280300   -2.32297225451667
H         0.01196667065347    0.91058091347418   -0.25519443482934
H        -0.85895962586258   -0.33272197254072   -0.52478344666554
H         2.40304090715130    1.88954099008682   -0.78131861933597
