35
 energy: -49.731413865332 gnorm: 0.103758838235 xtb: 6.4.1 (79825abcba525fcdf90b791dcacef51065a7a4e7)
C         3.66706340761873   -1.32072466437914   -2.76872676531414
C         2.98379678701775   -0.04364861727320   -3.23531861006050
N         3.93256121690394    1.10580569566322   -3.16836455969988
C         3.74443639815491    1.60115744057955   -1.97922027663622
C         4.17992650976481    2.98271389324712   -1.60665474959034
C         3.66816105074925    3.80584832741839   -2.79487526753311
N         4.30788308331002    4.73504537016244   -3.43283559269174
N         2.34412144054238    3.69427604224959   -3.18536286475490
C         1.19546400476545    3.01110838233761   -2.55944354746513
C        -0.07099162838223    3.76385648100252   -3.04327435932289
O         0.09597577604141    5.16969590852190   -2.85838696910306
C         0.98195422053689    1.52300107234620   -2.91472049223314
C         1.84162173679150    0.40837284257233   -2.25250653351044
C         0.96208224656957   -0.72953784498924   -1.64763787573874
N        -0.19132347746325   -0.13721509639553   -0.95243217167084
N         2.74311533793121    0.99548985377541   -1.24148732814422
H         4.65773476291633   -1.46713278571558   -3.21528315599220
H         3.08244880543842   -2.24619524889569   -2.79825716080021
H         3.88192258025299   -1.16877661435952   -1.70896500103857
H         2.57703640039649   -0.26788276584797   -4.23079811931290
H         5.21374326909545    3.28351376965945   -1.41848069812119
H         3.56115909240936    3.28262567420770   -0.75862537724367
H         5.28957601826581    4.89770149988207   -3.17589294492747
H         2.15408036984309    4.17034405199302   -4.07032005417775
H         1.31444306621745    3.13698300900116   -1.47475030266403
H        -0.93295294615923    3.47125355220474   -2.43497032029543
H        -0.19077304170010    3.58041014963476   -4.11841118146238
H         0.93295780508884    5.39716743491215   -3.30625419140783
H         1.07099810353396    1.41949917194565   -4.00441253132286
H        -0.07271278298892    1.29930226028169   -2.70481283451255
H         1.67295594356127   -1.32004229126720   -1.07022429485154
H         0.53882158809206   -1.26768695130360   -2.50491651320385
H         0.02487474886732    0.66383016895726   -0.36423038115938
H        -0.56422210977799   -0.82994970615421   -0.30123292663290
H         2.40675820996259    1.45352822085955   -0.39690564799783
