35
 energy: -49.720883623962 gnorm: 0.114483000899 xtb: 6.4.1 (79825abcba525fcdf90b791dcacef51065a7a4e7)
C         3.17887342866189   -1.57523536181229   -2.56855217496822
C         2.79703653142108   -0.14524048922193   -2.92182218349502
N         4.00729133822585    0.70021096275074   -3.13717573012979
C         3.89474739207388    1.65561742800594   -2.26004361095655
C         4.54859616906317    2.98799906113163   -2.44550484063888
C         3.61079512256913    3.94660085041469   -3.18910015116520
N         3.95642432553789    5.10183486807431   -3.66409449090214
N         2.31214497833224    3.55530996440356   -3.46911639393642
C         1.28112535897468    3.08686436767042   -2.52282666134515
C        -0.06279678815601    3.76014869684700   -2.90386908600692
O         0.03597218353061    5.14808898449371   -2.58400596483506
C         0.99096639597758    1.57213364333246   -2.61040616727421
C         1.92396346782733    0.59325762804791   -1.84146539309192
C         1.24909600830721   -0.28249897438751   -0.74060170692102
N        -0.02303027652830   -0.73336707934830   -1.32619085859721
N         3.00758657592037    1.38974749661822   -1.23243189338517
H         3.75787268445594   -1.67346361456955   -1.64259928598942
H         3.67456942607735   -2.05099972033918   -3.42123959434000
H         2.22734337316278   -2.11089568013281   -2.56605243187543
H         2.19177740970640   -0.03629006384606   -3.83204503083012
H         5.47795945385192    3.00401014165714   -3.02056541503724
H         4.72027795135732    3.51800534557313   -1.50657315798467
H         4.93866025332880    5.40133140331660   -3.62271858639805
H         1.94103142734898    4.10802937032628   -4.24544209459388
H         1.41881158039105    3.35374194818843   -1.46623840174576
H        -0.94616491836911    3.39635041242177   -2.36913630027284
H        -0.33169853686873    3.66031433273829   -3.96294617608082
H         0.60574137507223    5.62909162822004   -3.21397960457005
H         1.08369728316450    1.39587730930322   -3.69040844129769
H        -0.07116630092673    1.35911779938107   -2.42895849628149
H         0.96322071664904    0.41670710707255    0.04478325695087
H         1.86492685375873   -1.13475596685572   -0.42740672771218
H         0.10924082684184   -1.56537039141626   -1.89599028294069
H        -0.62149005227316   -1.01639249305518   -0.54854209440710
H         2.74382294127885    2.06742736963748   -0.52008912892215
