35
 energy: -49.714826190057 gnorm: 0.115861610239 xtb: 6.4.1 (79825abcba525fcdf90b791dcacef51065a7a4e7)
C         3.35178519479698   -1.38818931609110   -2.52852262286969
C         2.86949941357463   -0.07450889112768   -3.12612500968229
N         3.94709571920990    0.94972599626262   -3.25106942664037
C         3.79220312476387    1.63642412205016   -2.15595190490337
C         4.47433191957240    2.94960447320069   -1.93820755077791
C         3.88080295886472    3.80244376337004   -3.06590905932856
N         4.62875912219394    4.37912857126158   -3.95340047383251
N         2.51655525621428    3.93305781665012   -3.26535331300713
C         1.42166015812628    3.19143297036140   -2.61029279059707
C         0.10642658552889    4.01024257629815   -2.67619655401190
O        -1.01783314374983    3.13593811962382   -2.57580863552886
C         1.27931671141578    1.79652202323154   -3.25854686704177
C         1.82739012610123    0.73127533545390   -2.26616754105999
C         0.72550283245342   -0.09727331870868   -1.53565534132334
N         0.04466714493838    0.70364750755382   -0.50633976022673
N         2.81399809480666    1.20779770774355   -1.27667873728021
H         3.55842139234066   -1.46689143414462   -1.45456492582448
H         4.28099303789140   -1.59889235378233   -3.06826246604516
H         2.58038526936033   -2.13274805923836   -2.73569912002026
H         2.59874167964382   -0.28857249189011   -4.16899674017895
H         5.55279566435279    2.77754502385036   -1.98268928271144
H         4.21946391629229    3.37881486397318   -0.96723137369488
H         5.64830037234607    4.40878300939764   -3.82748855663108
H         2.40462319929017    4.08047386664296   -4.27115912180860
H         1.63480281869122    3.02866207730607   -1.54509997653659
H         0.00145716712691    4.32741184200457   -3.71879555421373
H         0.09568886237783    4.78349687754308   -1.89781245075016
H        -1.04168218499914    2.81314109738771   -1.65488487832810
H         1.93511316778835    1.70058327619152   -4.13421631387313
H         0.24125269420948    1.66382921189549   -3.59207434726252
H         1.21032797712343   -0.99207678663007   -1.14614964251819
H        -0.06544509493294   -0.41706945490191   -2.22544698466985
H         0.25849483570654    0.51747495576654    0.47039665969266
H        -0.97134936242597    0.62098986796072   -0.56857523724758
H         2.45225374139797    1.62701401981925   -0.42248193353605
