35
 energy: -49.719015502229 gnorm: 0.109521445469 xtb: 6.4.1 (79825abcba525fcdf90b791dcacef51065a7a4e7)
C         3.69003401108536   -1.36353620050766   -2.71827313217831
C         2.96364252597470   -0.11620382115402   -3.19993876920432
N         3.98077278616913    0.97242083360155   -3.12104394115015
C         3.69440689137680    1.62644982114430   -2.03243516619573
C         4.31200639815848    2.95356800451733   -1.72505414272362
C         3.64360799795297    3.92630269952424   -2.70400918303758
N         4.12574005998621    5.03181540243902   -3.17838786707213
N         2.44072457519436    3.50760538256630   -3.24786014788003
C         1.24458079363811    2.89207193289879   -2.64101122999322
C         0.11657729251930    3.78869935958439   -3.21398523414509
O         0.01359252088865    5.13097128670579   -2.73843695076341
C         0.94136271825128    1.42956153058967   -3.03521126617807
C         1.78640255472296    0.36735251746207   -2.27523009922267
C         0.88699477432287   -0.69826418686023   -1.57535638147997
N        -0.09580280852047   -0.00692704712987   -0.72643716406673
N         2.62079667449341    1.12292728697350   -1.32000753514589
H         4.49357322949620   -1.54317197807197   -3.44238182235033
H         2.99342793552671   -2.20700039714481   -2.66877359945299
H         4.27482853120326   -1.28626746732345   -1.79936477265757
H         2.59289481398063   -0.24491957571577   -4.22594695726650
H         5.38427843617616    3.13953388881913   -1.82662426464995
H         3.96810835360313    3.12215328069881   -0.70266129137894
H         5.07511594244099    5.31237855568407   -2.90240361315925
H         2.17892873163368    4.18100269510480   -3.97167269328857
H         1.20769461195879    3.01182275087145   -1.54974635156761
H        -0.85817887495999    3.39335249641042   -2.91037549933285
H         0.35440898250735    3.85119779149449   -4.28330715441365
H         0.90650032581262    5.52238587571455   -2.68967700671797
H         1.34209326658119    1.27525985904680   -4.04599128243495
H        -0.15580718563895    1.37825346183732   -3.03196387499310
H         1.56954695732439   -1.41244606351385   -1.11545408554933
H         0.38023666391971   -1.28761227762789   -2.34965977565743
H        -0.12004875377359   -0.26605827595037    0.25675136020288
H        -1.02052243801474   -0.22190724334254   -1.10283085020620
H         2.22719855390342    1.69345851562238   -0.57446873265603
