35
 energy: -49.722488685091 gnorm: 0.105094614397 xtb: 6.4.1 (79825abcba525fcdf90b791dcacef51065a7a4e7)
C         3.59364460813759   -1.58066859471261   -2.55946545526574
C         3.12880940795945   -0.25364480921791   -3.14120469769073
N         4.11156453263061    0.86801519633665   -3.09700974946733
C         3.80705161944813    1.58358207606462   -2.05294828559523
C         4.30298227768229    2.95413099892779   -1.71708616625979
C         3.59951542008800    3.92324557596946   -2.67483011457001
N         4.14323575580242    4.98568756832134   -3.18003304002787
N         2.36904440703866    3.60542188491590   -3.22522906119481
C         1.17083859641865    2.91383488823427   -2.71150031654221
C        -0.07057710740985    3.67685624566975   -3.24189383369059
O        -0.23194318491983    4.94023685706817   -2.59669899956614
C         1.18910496783074    1.46287066024909   -3.24125563032485
C         1.94170075777490    0.42342011486674   -2.36199807921166
C         0.85878035892184   -0.45916565173222   -1.66728782452594
N        -0.08071845447563    0.30023246187793   -0.82755068986452
N         2.73937015477429    1.09849592761344   -1.31913992120084
H         4.49461204448713   -1.87331983815442   -3.11163445994982
H         2.80549959907779   -2.34020237875226   -2.52663328085478
H         3.96014194985154   -1.44097176395358   -1.54039128786661
H         2.90709177255645   -0.56009395999612   -4.17253617809421
H         5.36497588859721    2.94800600825516   -1.97554156075998
H         4.03589533368298    3.13453764823071   -0.67396968449113
H         5.04574265771757    5.38955048386734   -2.89972323793231
H         2.04491681910314    4.29848420681692   -3.90383905137012
H         1.09420886958851    3.08529627602365   -1.62923936851973
H        -1.00504657929253    3.14672623336771   -3.03128385021017
H        -0.00627750910316    3.91577061971508   -4.31086755221184
H         0.60472941267166    5.44256362165049   -2.57402643338367
H         1.70868865390973    1.51048878762092   -4.20760728817049
H         0.13960443213289    1.14028838107417   -3.21102024442640
H         1.29326999415328   -1.22668642320754   -1.02730815314120
H         0.22388642663817   -0.90678789555792   -2.44202954388577
H         0.35805364106466    0.79683580008899   -0.05601928499849
H        -0.87893888273468   -0.26504139465843   -0.53377407670663
H         2.12169461301112    1.65851026608092   -0.73508996297004
