35
 energy: -49.724901877306 gnorm: 0.129584623601 xtb: 6.4.1 (79825abcba525fcdf90b791dcacef51065a7a4e7)
C         3.69604555796827   -1.38690946140863   -2.72142640774598
C         3.11737702540806   -0.01658462732334   -3.04210848021081
N         4.13812541701708    1.04634232768222   -2.80942629475747
C         3.68512580986323    1.75896395317657   -1.81857302609930
C         4.09979278640636    3.17725176734647   -1.58691395605905
C         3.60438734108469    3.78092195895959   -2.90656465016060
N         4.29561896319095    4.51959749180181   -3.71662768948653
N         2.37766201288019    3.43743436052406   -3.44986116385937
C         1.21795158375471    2.95651813035840   -2.67416903121106
C         0.02959717803398    3.88721836307665   -3.02947551561856
O         0.17327996804940    5.19569528715649   -2.47658371459051
C         0.92729392081912    1.45821826900111   -2.91267934074709
C         1.87512792787151    0.45245772380126   -2.19853084192338
C         1.03159041167252   -0.69797835352673   -1.56667814782939
N        -0.35846564038732   -0.26196832123070   -1.36139445247859
N         2.59939330709519    1.21087647733025   -1.15939775054153
H         4.62431907169268   -1.54751257575734   -3.28249021747559
H         3.02639241887365   -2.15388414382334   -3.12448544119301
H         3.84462144298719   -1.59191931579778   -1.65923818453974
H         2.97671188668777    0.22022058267380   -4.10552327187900
H         5.16255120154819    3.41935986323238   -1.50570212787487
H         3.61728867822681    3.64765163276608   -0.72791002395896
H         5.22184630085145    4.62528701544272   -3.28404218666939
H         2.17168634214461    3.73970836590483   -4.40490568804825
H         1.46929491086724    3.15705958560895   -1.62385025061167
H        -0.87870082971553    3.46224377932299   -2.59013632631907
H        -0.18012368153649    3.98199115368746   -4.10230103686490
H         0.92279310249451    5.67058875722905   -2.88349096703447
H         0.87430374441975    1.22520804367180   -3.98457880980882
H        -0.09014346618354    1.31961353118892   -2.52276299418715
H         1.61860350057511   -0.99305054645128   -0.69731551237709
H         0.89181800359999   -1.40900786962940   -2.39043867815570
H        -0.40338145496538    0.38006961378623   -0.57388800967736
H        -0.87941696170968   -1.05506684889802   -0.98377092011556
H         2.22072818262411    1.72581716333033   -0.36712110321706
