35
 energy: -49.710804655516 gnorm: 0.111909801411 xtb: 6.4.1 (79825abcba525fcdf90b791dcacef51065a7a4e7)
C         3.63680209309773   -1.49523926790503   -2.42906115611327
C         2.91818571852543   -0.30069354760970   -3.03909022530298
N         4.05169508423210    0.63935816579555   -3.27855068043590
C         4.02852265059177    1.46929112812991   -2.27580307894803
C         4.67596255597684    2.81678742273435   -2.22857733915080
C         3.71663207795033    3.64321773074295   -3.09345893435904
N         4.16067360298565    4.43134404919768   -4.02153698026617
N         2.37875869179404    3.94432669047906   -2.89996979718241
C         1.22826501987493    3.10802762918315   -2.50642797008131
C        -0.04208238455385    3.87468396395490   -2.95708014778581
O        -1.15450033839229    3.15104330422984   -2.43047169926433
C         1.24002859086601    1.68175352168598   -3.09961878254376
C         1.94747068563571    0.61915365248713   -2.21059746279859
C         0.85388195179478    0.08967430537145   -1.23181665918224
N         0.23822268261589    1.16609917440495   -0.44012534541670
N         2.97266269784650    1.30296043964195   -1.39761125674209
H         3.90661530282694   -1.34283346178632   -1.37727649163214
H         4.58325664970650   -1.39394760989044   -2.97045367379148
H         3.04275598608431   -2.41144534177583   -2.42423243936496
H         2.52483328765726   -0.48618534625305   -4.04784246008215
H         5.65235971300254    2.81138171298175   -2.71978657589648
H         4.78077658279437    3.04859579098105   -1.16685567124962
H         5.17327505707473    4.52688287509222   -4.16887398171297
H         2.20059920614786    4.64508829669095   -3.62322492129184
H         1.07216760351035    3.08590594248013   -1.41936582168617
H         0.02096687787470    3.91276113881252   -4.04941824517192
H        -0.15511162778532    4.91624354143032   -2.63104737723289
H        -1.96952176614917    3.24952069246193   -2.95859056593671
H         1.63541635002998    1.60735681936198   -4.12148171788615
H         0.17376364606148    1.42563971498934   -3.16214609681741
H         1.38169494236106   -0.63748770634783   -0.61530046305412
H         0.13341903503139   -0.47495362090156   -1.83663828390187
H        -0.51559025497858    1.62869195012938   -0.94229117054717
H        -0.15664995662959    0.73829693795090    0.39895506253279
H         2.75270576696319    1.99073295456910   -0.68008676086479
