35
 energy: -49.721677000780 gnorm: 0.123251822932 xtb: 6.4.1 (79825abcba525fcdf90b791dcacef51065a7a4e7)
C         3.69739966784565   -1.31858457935263   -2.66327182601397
C         3.00110784816770   -0.04930446048484   -3.13187624779980
N         3.94980554481634    1.08514157947728   -2.93467875115235
C         3.71970731260072    1.70724380645415   -1.81446804841263
C         4.15574598533553    3.12509298279880   -1.62282025521406
C         3.66562610999207    3.86047242245274   -2.87594503960559
N         4.33483260085111    4.67435007155925   -3.63053805903374
N         2.44566152631389    3.48199994490841   -3.41115977358031
C         1.27928640159053    2.95936096048367   -2.67337626327018
C         0.03589791234007    3.84171029705432   -2.95635423384924
O         0.17166068322178    5.19941610994593   -2.53605749960599
C         0.88883326001095    1.50114000288532   -3.00111014456467
C         1.81586780190170    0.49927248067668   -2.25490637876257
C         1.00853297130999   -0.69355600359839   -1.65518378484670
N        -0.34196225477837   -0.39235371439182   -1.15524201952903
N         2.61058991850032    1.15605465841073   -1.19820830332564
H         4.58204917834670   -1.52523840934673   -3.27724830321214
H         2.92786480777574   -2.09353923875506   -2.74329341763807
H         3.89520961442631   -1.24803630810698   -1.59171136156048
H         2.71621720715617   -0.07214507085272   -4.19255057751211
H         5.24379745536883    3.18269058441459   -1.53625450603758
H         3.76559387096528    3.51358263112295   -0.68004186231040
H         5.27571233401185    4.97374554963400   -3.34539734307728
H         2.28654304565962    3.79843417146135   -4.37056389364148
H         1.48033196023479    3.08131260239498   -1.60040452242632
H        -0.79024902755484    3.41493712550065   -2.37844984095599
H        -0.05828396188506    3.67543709941479   -4.03681817545103
H         0.98189920089647    5.67166289670853   -2.80691497933101
H         0.99080472189398    1.43179934882722   -4.09237724586116
H        -0.18042275993305    1.36725479203374   -2.78852801237213
H         1.59686168456930   -1.16893816149655   -0.87075757697171
H         0.87364507232329   -1.44697128600016   -2.44121900277631
H        -0.40742563770880    0.52564134421763   -0.72234925216089
H        -0.85448250231044   -1.16615757438145   -0.72916027007830
H         2.12791258304323    1.52026954120425   -0.37929221397128
