35
 energy: -49.719497653059 gnorm: 0.115700883117 xtb: 6.4.1 (79825abcba525fcdf90b791dcacef51065a7a4e7)
C         3.38102784104987   -1.42683614579285   -2.23273349215670
C         2.95694492232422   -0.19425586224599   -3.01783473930413
N         4.04004713241502    0.82486364475778   -3.13686007684209
C         3.82877590346396    1.65878886673728   -2.15974104842798
C         4.40491940188829    3.03868193347011   -2.12644399064540
C         3.74979525383395    3.90177078647571   -3.21143806976978
N         4.36568849546795    4.93882657856199   -3.68560638276680
N         2.56431315160936    3.42603710863365   -3.74652637338569
C         1.40308848059926    3.07936782781674   -2.90433597850683
C         0.09162686081032    3.81522298337050   -3.28277678796595
O        -0.84095800769452    3.80397522076961   -2.20175647824626
C         1.02040104391880    1.59462366272812   -3.09236960930289
C         1.85093290130590    0.60075346605678   -2.23074872484645
C         0.87192530195657   -0.28803843607296   -1.40256418458594
N         0.17621841791974    0.52330704921596   -0.39151897978155
N         2.81098879396163    1.25038118164286   -1.31650944933527
H         3.78559778369057   -1.22954079788393   -1.23289581274641
H         4.12992920932527   -1.98608028667426   -2.80329007356094
H         2.47180485871788   -2.03052094673033   -2.26774635737456
H         2.63794333177238   -0.42203464280343   -4.04402635265842
H         5.47676991266695    2.96650133897907   -2.32792245674138
H         4.23610404968812    3.39078953897150   -1.10688741966382
H         5.34248727236417    5.10337275227138   -3.41177018560476
H         2.31681168125853    4.03660226099545   -4.52874042526166
H         1.60045062848124    3.35344512363836   -1.85911365543854
H        -0.32483722287756    3.23470260733099   -4.11234375749971
H         0.24401036167230    4.86653396808897   -3.55744715389272
H        -0.54565233189774    4.30198635065425   -1.41585143812609
H         0.98511277836180    1.38473034193953   -4.16975985152509
H         0.01063349192517    1.55089670543254   -2.66239015870449
H         1.43576855329951   -1.09887199927392   -0.94205025466106
H         0.17418497143999   -0.70101995718209   -2.14167540913049
H        -0.54236011084222   -0.11636571050005   -0.06157928978347
H         0.62573311905904    0.76540475839919    0.49296975042552
H         2.31392816358956    1.86030974878575   -0.67062141709544
