35
 energy: -49.724277943239 gnorm: 0.101427471193 xtb: 6.4.1 (79825abcba525fcdf90b791dcacef51065a7a4e7)
C         3.55336396540189   -1.37397969898348   -2.89614133021454
C         3.00545376288258    0.00742930697580   -3.22323154170408
N         4.06631401745374    1.03201910553977   -2.99812432188108
C         3.73786224081206    1.61015925334808   -1.87888269257721
C         4.14650463673652    3.00142544952550   -1.51207932898954
C         3.55636362497646    3.82081444277133   -2.66605397086409
N         4.07711150539106    4.95424048307576   -3.01792308849134
N         2.39822072912327    3.43744325551438   -3.32160063047610
C         1.15102593915121    2.91619045674499   -2.72939487392952
C        -0.00381075635695    3.84524870947820   -3.18528389742535
O         0.41776240894882    5.19846617320116   -3.01345688503524
C         0.81983046422677    1.44039318341705   -3.04340681478540
C         1.77613357923234    0.43525612400904   -2.33974815010949
C         1.00236733108720   -0.71065439564376   -1.61692630340746
N        -0.03437150788610   -0.13722626077604   -0.74465643320190
N         2.60922806934386    1.06320162635538   -1.29514537528007
H         4.35246197985102   -1.42290949192576   -3.64535820489177
H         2.82035301010120   -2.15751844881064   -3.11501125958798
H         4.03606702141550   -1.45419070057468   -1.91996941048207
H         2.78942445852945   -0.02828428638889   -4.29969347402114
H         5.22459967307643    3.10348861131278   -1.66027298322905
H         3.93895353352371    3.53224739883665   -0.58088407915434
H         4.97634132809103    5.19752934893462   -2.58387952058538
H         2.30085206479926    4.06737272148748   -4.12135922877057
H         1.25915629562412    3.00728816622873   -1.64009742840614
H        -0.95355243970945    3.69055774716472   -2.66308754372313
H        -0.17488287314608    3.62806347544563   -4.24711450402316
H         1.37628433528754    5.30163294643449   -3.16662213586943
H         0.66452467050223    1.24108865976946   -4.11215749186529
H        -0.14360093304331    1.21266198499224   -2.56763026929439
H         1.70732420153830   -1.27375272621414   -1.00586211781976
H         0.50540559158100   -1.42718913671989   -2.28272484164797
H         0.38460030466337    0.59188234235283   -0.17259017545533
H        -0.50231555024715   -0.89311455995907   -0.24200711436490
H         2.06563560667604    1.63928775606532   -0.65570382790408
