35
 energy: -49.690550566745 gnorm: 0.129455676690 xtb: 6.4.1 (79825abcba525fcdf90b791dcacef51065a7a4e7)
C         3.53220112687511   -1.26079210378268   -3.32602543422435
C         2.88461340521706    0.09845574837950   -3.10566239251378
N         3.98954662838112    1.07909634849381   -2.89745911176268
C         3.71651413073719    1.61464537644210   -1.74269985063575
C         4.28721176668517    2.93426242386505   -1.33030434485730
C         3.70127570697609    3.86157377176300   -2.40179621539273
N         4.45030741378347    4.61145078968452   -3.14763855738785
N         2.41331076611177    3.72897253840038   -2.89329705610182
C         1.08501074398891    3.11856346035283   -2.69099341048794
C         0.13386583966823    3.63725075951881   -3.80046116934614
O         0.16688328286492    5.06189373984526   -3.88848499300871
C         0.79734761469177    1.60083180284413   -2.68752020944158
C         1.72896988487962    0.49461767400552   -2.11452636507272
C         0.97144930126762   -0.76181015578173   -1.58363253103721
N         0.11665702095587   -0.22255985752755   -0.51450145084827
N         2.58512644507160    1.14291718932710   -1.10148112702598
H         3.89195722317337   -1.12965805592939   -4.35347718571396
H         2.86620265153215   -2.12942426552150   -3.29337150618531
H         4.41835000673348   -1.36540475721332   -2.69662570077151
H         2.47354007487934    0.34220757635520   -4.09476208639036
H         5.35047201386423    2.71665402850450   -1.45988596132885
H         4.12214158337932    3.34598135355804   -0.33270052998773
H         5.36158712788894    4.71909760906750   -2.68484376546803
H         2.31375766612078    4.56518113449387   -3.47359868204746
H         0.70528051331693    3.60503355875853   -1.78230661643111
H        -0.85346901397940    3.28245686373608   -3.48754140290194
H         0.51331053470915    3.27409905793814   -4.76382086495970
H        -0.32089739546034    5.39575487929581   -3.11164909533973
H         0.38070378609786    1.32059914498962   -3.66422271681715
H        -0.04222101314624    1.49559269917323   -1.98718161831340
H         1.79908774457332   -1.42438982287427   -1.33174730527395
H         0.45640566566697   -1.28605568381612   -2.39823513119464
H         0.66714400144012   -0.02616391880456    0.31783818023096
H        -0.50601812531557   -0.97248524126683   -0.20973486756202
H         2.21813776649561    1.37078109586187   -0.17971605714274
