35
 energy: -49.723986218083 gnorm: 0.101378888033 xtb: 6.4.1 (79825abcba525fcdf90b791dcacef51065a7a4e7)
C         3.27752153319454   -1.52124937987428   -2.55346572536475
C         3.00079009454087   -0.09546488911746   -3.00738504872160
N         4.09763114570722    0.91554637132825   -3.03342249800281
C         3.97445188972422    1.72060176273172   -2.01777436756745
C         4.53718255984597    3.10613995617544   -1.98997014803091
C         3.80151750441107    3.77092278939579   -3.15966365589784
N         4.45793100750479    4.34275369010922   -4.11975508571774
N         2.43635948491526    3.70895740804452   -3.38441620187920
C         1.24569457209918    3.17840792798923   -2.69250488038696
C         0.02322036135469    3.91869917368459   -3.29430011779654
O        -1.10795782338052    3.77289810246584   -2.43544976954894
C         1.07003799996351    1.65027419443160   -2.83471455810858
C         1.98594740925899    0.65399116036619   -2.06758890105178
C         1.09629859218137   -0.37320602367802   -1.30098110618162
N        -0.03415470032523    0.34081960453373   -0.68718574978024
N         2.90054994705459    1.42099178181340   -1.19881435990948
H         3.62472884863963   -1.55982459042890   -1.51412135690218
H         4.09077671303871   -1.97855865111545   -3.12672511344010
H         2.33082821579393   -2.03942181824514   -2.71964863360248
H         2.58034689050883   -0.12706513215488   -4.02175350571107
H         5.61773849472353    3.02711770727540   -2.13426671777113
H         4.33225980963798    3.60635311011071   -1.04140941310422
H         5.41902695342749    4.54602517209770   -3.81780665042959
H         2.30410351232525    4.27434521822254   -4.22628945703886
H         1.22515992631763    3.48991146200527   -1.63936492890008
H        -0.26158709140524    3.47497028793122   -4.25378799469741
H         0.19304546130806    4.98765106620108   -3.47435736874459
H        -0.90238400784432    4.18736746510093   -1.57590232181631
H         1.22621518077904    1.46203616671441   -3.90534304252282
H         0.06537873325480    1.34503368809774   -2.51235936480579
H         1.71430413449753   -0.99624955042321   -0.65497082932275
H         0.61688972726854   -1.04629681903975   -2.02264351890036
H        -0.61795482017839   -0.37359984726131   -0.25919181509413
H         0.37559735178646    1.04338008780765   -0.06952313069400
H         2.49346842442849    2.16484867480490   -0.63559588532847
