35
 energy: -49.721518289609 gnorm: 0.104791579838 xtb: 6.4.1 (79825abcba525fcdf90b791dcacef51065a7a4e7)
C         3.27763251973899   -1.60325544686504   -2.40540384599673
C         2.90335100271528   -0.22136445709332   -2.92093764200514
N         4.14530211568302    0.59215967044626   -3.06796804676499
C         3.96048444410910    1.59151608233707   -2.25436027254938
C         4.63439640643242    2.92322600423479   -2.35206532731386
C         3.82249855865227    3.87230846232320   -3.24166441799424
N         4.27420173735478    4.97754811685219   -3.74570246398587
N         2.44814724112925    3.76168408620479   -3.37178178355853
C         1.30633078037555    3.10024864569392   -2.71097524005750
C         0.02192835734784    3.78051583262890   -3.25151091207221
O        -1.24370075844720    3.37210932124236   -2.73205637211581
C         1.19014362712024    1.59915873486360   -3.05666466947406
C         1.93327894737077    0.66660468312882   -2.05764286743532
C         1.00258402202753   -0.14800191773207   -1.10658050145618
N         0.05030771843124    0.71378986983659   -0.38895473811632
N         2.94436902054255    1.45488649926340   -1.32561445063137
H         3.35772478809393   -1.65243155626308   -1.31295493569169
H         4.29209439312549   -1.87049821932440   -2.71939507502239
H         2.67270369545241   -2.45971631312308   -2.71017190368381
H         2.32776635958230   -0.33747068919859   -3.84934277763992
H         5.57888725590900    2.77317957122772   -2.88130085876081
H         4.87118907684240    3.49870288933071   -1.45499811774515
H         5.27711556840772    5.19221515915878   -3.68028482392912
H         2.19506639390558    4.54343147822794   -3.98065508568790
H         1.22778063677882    3.20392522813099   -1.62026862291683
H        -0.02997924066687    3.65249124422889   -4.33757854483482
H         0.14466775065842    4.84589113558762   -3.01949832678610
H        -1.13947899611163    3.56786525105421   -1.78143304908837
H         1.35937840502878    1.40397130146604   -4.12405947263560
H         0.13427155412058    1.34924669651906   -2.88606856921282
H         1.64792555930900   -0.70649845995615   -0.42904136541608
H         0.41798445354887   -0.85399350258722   -1.70949006392704
H        -0.78065116232007    0.21123536641392   -0.08672494396115
H         0.55012114621603    1.09894957072269    0.41406059739480
H         2.73227560957360    2.27651614534368   -0.76330261810464
