35
 energy: -49.719495058705 gnorm: 0.114040628527 xtb: 6.4.1 (79825abcba525fcdf90b791dcacef51065a7a4e7)
C         3.57523244904084   -1.39115962774908   -2.85855786512412
C         3.10495536150883    0.03781133650395   -3.08739382495044
N         4.21100293365459    0.93488715870207   -2.64265148532513
C         3.69792907522452    1.65748821169876   -1.68901037754924
C         4.14203244114931    3.08443258782131   -1.62771697973572
C         3.60394549345253    3.81999046618131   -2.86089954260904
N         4.10099514726928    4.84311532399444   -3.48202914530129
N         2.37649074011325    3.46904395764891   -3.39774331274530
C         1.17447765064307    2.88986299792073   -2.76717140032742
C         0.01653707594490    3.83611036758245   -3.17756314362062
O         0.11912586742253    5.14745826021314   -2.62232607433583
C         0.88979292868404    1.40737206757256   -3.09496219324017
C         1.84486416187266    0.50049872053349   -2.26709059605989
C         0.99734660861632   -0.68820615671960   -1.71664413750012
N         0.10521818649892   -0.10495417892475   -0.70253073105228
N         2.52581104447566    1.16869601385809   -1.14042264736971
H         4.44085932168854   -1.56240140004241   -3.50943731505307
H         2.82259501784980   -2.07609107609140   -3.26296841348779
H         3.89088646128732   -1.57500131729552   -1.82952315050566
H         2.92121752430083    0.20138617987031   -4.15800024285897
H         5.23126659837976    3.08125658609423   -1.53701969541789
H         3.71091976269394    3.64306430994380   -0.79462246779263
H         5.08454871181438    4.98608456540779   -3.22053392513905
H         2.23072724769692    3.98688458930013   -4.26751321749927
H         1.27962553679714    3.14664726343329   -1.70436113458541
H        -0.97811805967598    3.56344304420339   -2.81021959090520
H        -0.00032907894480    3.82177408723297   -4.27457241307580
H         1.06176677573943    5.39727046411850   -2.66579148386668
H         1.06477686903224    1.18179433973701   -4.15541753296444
H        -0.16903049686039    1.11850543962823   -3.05167373503263
H         1.59265421492575   -1.46114108836333   -1.23123316529636
H         0.43922967098829   -1.02061040967385   -2.60077852546384
H         0.43551519313287   -0.40273537666446    0.21214231828848
H        -0.87830342586105   -0.36548810487734   -0.79086191955377
H         2.02356663962920    1.74551471498284   -0.46864573262507
