35
 energy: -49.724347910132 gnorm: 0.096173764939 xtb: 6.4.1 (79825abcba525fcdf90b791dcacef51065a7a4e7)
C         3.42199887778334   -1.41767804089768   -2.62299311677090
C         2.77310515178364   -0.11696785425675   -3.07307576649640
N         3.90075078688490    0.85657997510831   -3.15371044879109
C         3.87085199593079    1.64687929870624   -2.11961110222732
C         4.54992191392154    2.97955210606233   -2.12108132025677
C         3.81262330430309    3.80300216025586   -3.18392793914125
N         4.46005529811696    4.64069713904800   -3.93141956858499
N         2.47084907296639    3.60209016729766   -3.46193171546977
C         1.31521448061372    3.06579545060709   -2.71708031079919
C         0.18669355621979    4.02823386479365   -3.16961169520813
O        -1.11343881222973    3.53035290965156   -2.85304205763348
C         0.90100864623767    1.58264357905758   -2.83941415297749
C         1.83317041515374    0.62000234980681   -2.04925721360354
C         1.00697505144631   -0.33491123883802   -1.13283055692632
N         0.50979805340042    0.44076201053141    0.01418645130428
N         2.80605818218859    1.40994174465819   -1.26884573489283
H         3.81498810797247   -1.28114372607678   -1.60850037171766
H         4.31048189436230   -1.54272225310739   -3.25077011393711
H         2.72134640309714   -2.23523556102714   -2.80474426489452
H         2.31260943935892   -0.25293918852779   -4.06108887986605
H         5.60065866361304    2.88818495994358   -2.40791133860863
H         4.53465368659962    3.41470216122370   -1.11988937955579
H         5.42214801606214    4.68968555568980   -3.57340377530251
H         2.26202274736131    4.33857838368372   -4.14007791658697
H         1.51193246075635    3.33630317659970   -1.67080716628183
H         0.27536256172676    4.14102888491544   -4.25498844382774
H         0.37333274199272    5.01171252819416   -2.72032908666069
H        -1.72837871462260    3.91299641734114   -3.50748848286390
H         0.79317741097553    1.24013687000944   -3.87726374511121
H        -0.08301259014429    1.47406396013302   -2.36366469411976
H         1.61002105488431   -1.20082915999602   -0.86086542579527
H         0.22071413232255   -0.71140722282092   -1.79895761097244
H        -0.31714721136881    1.00999080704742   -0.14871426404840
H         0.34139675863761   -0.07374452831336    0.88016515090690
H         2.48510549244001    1.98303280280060   -0.49115075639048
