35
 energy: -49.718560319862 gnorm: 0.109519925187 xtb: 6.4.1 (79825abcba525fcdf90b791dcacef51065a7a4e7)
C         3.28652990264203   -1.44825834060105   -2.61235039084001
C         2.86677189674815   -0.05902228273221   -3.06985539053572
N         4.03750467643991    0.86577434013144   -3.07409289851986
C         3.93486620829075    1.66343728113709   -2.05036071559092
C         4.42453819225648    3.07420322183749   -1.96600595997874
C         3.80835122078965    3.84006033504529   -3.14290811173301
N         4.43568922871946    4.65681668510478   -3.92967420658854
N         2.51785215400463    3.47022546810618   -3.48326700647637
C         1.38414583505244    3.24523218308015   -2.56566415896959
C         0.20820565416491    4.19590979861260   -2.90918791942797
O        -0.72287168440192    4.42637995815149   -1.85163203869276
C         0.95950769230276    1.76224475024952   -2.64753146063521
C         1.91694393285953    0.68564561234198   -2.06084431116196
C         0.98389986630214   -0.22609004498134   -1.20500354511649
N        -0.20564901148499   -0.51856596848959   -2.01982455587478
N         2.92866019332067    1.29535068535932   -1.17526717739739
H         4.03199405098290   -1.29087876114030   -1.82381215283695
H         3.84726880698859   -1.99546573553915   -3.37738504647012
H         2.46117641109977   -2.06532230435350   -2.25128067483399
H         2.43257664283415   -0.09342233584735   -4.07832230905978
H         5.50779593630045    3.19261797726316   -1.88116652801201
H         4.07472386176349    3.40776190218191   -0.98705624827530
H         5.39182419014473    4.83590293041209   -3.59811483377561
H         2.24885404193965    3.89673905359474   -4.37300392000893
H         1.76903094448489    3.45796143655949   -1.55910089728023
H        -0.31006373905576    3.84727193519382   -3.80834088834666
H         0.59694838086473    5.17799607014638   -3.20634944734988
H        -0.94988948292623    3.64350984299737   -1.31456169005681
H         0.81858591435335    1.38191948398675   -3.66810186527263
H         0.02875530341386    1.77434749992748   -2.06445480347339
H         0.66539067897701    0.28463873832770   -0.29662511743678
H         1.46881218969690   -1.13791752803180   -0.83471800802154
H        -0.93009103149009   -0.93726871000127   -1.44166513763496
H         0.09922393427718   -1.27455116394157   -2.63507569115023
H         2.85723621398244    1.95341641626905   -0.40189690254353
