35
 energy: -49.721571629199 gnorm: 0.115431127500 xtb: 6.4.1 (79825abcba525fcdf90b791dcacef51065a7a4e7)
C         3.44122116068496   -1.59438544631793   -2.64479103273047
C         3.04849297175573   -0.17643177405788   -3.03293581776024
N         4.05480575188689    0.92333552348793   -2.97187471927847
C         3.78089884042549    1.59378609978687   -1.89007094011326
C         4.43083166049251    2.94087524676454   -1.89971492118727
C         3.63855808013194    4.00854238539381   -2.66372511364699
N         4.03508119043577    5.18377064665074   -3.03956115383421
N         2.48042755359028    3.56371639882098   -3.27925199208388
C         1.26791965352696    2.95883973916070   -2.69456764724250
C         0.01666053713083    3.62638387205641   -3.32175764130266
O        -0.11798985538833    4.95582056968279   -2.81885278173426
C         1.18582202175723    1.46605247631603   -3.08330624595638
C         1.87367976917222    0.41267940251162   -2.16831523367761
C         0.89055735122515   -0.58612710093788   -1.48263863752334
N        -0.30409229305495    0.13455358542104   -1.01580511538233
N         2.66483729000555    1.17934197433857   -1.18553591713455
H         4.47131464754565   -1.71192760950759   -3.00167887101244
H         2.80202971404025   -2.31857182537005   -3.16066936971286
H         3.41467922865073   -1.66739862693871   -1.55561140403715
H         2.81543211021384   -0.28376739605022   -4.10105383986226
H         5.42849375341188    2.86656082961260   -2.33995896773584
H         4.62664572647842    3.24874239523884   -0.87071120824173
H         5.01637127559622    5.44090797823003   -2.87479552489686
H         2.34133392431264    4.16818092045045   -4.09238248468597
H         1.26545147603450    3.10178117958748   -1.60547558098309
H        -0.82430334306835    3.02045682592186   -2.96925265457720
H         0.15196920401669    3.55915109522126   -4.40853758683820
H         0.58422274309749    5.54400606279108   -3.15619912098981
H         1.63020936967544    1.34444847900536   -4.08020270906620
H         0.12283474770507    1.19829249896509   -3.15249815017622
H         1.44126355200432   -0.99861646760190   -0.63764245024239
H         0.53884402745223   -1.32175363992882   -2.21669042715456
H        -0.03312273369072    0.88543641157273   -0.38560910225130
H        -1.03109024425517   -0.45413256647791   -0.60602752432122
H         2.16647658316265    1.70830955605295   -0.47273625853766
