35
 energy: -49.714851628505 gnorm: 0.114684925759 xtb: 6.4.1 (79825abcba525fcdf90b791dcacef51065a7a4e7)
C         3.38807183384184   -1.40289972905809   -2.56908659303697
C         2.83304216378176   -0.09276100462385   -3.10849648479777
N         3.87575730296048    0.96462550935906   -3.25188720959746
C         3.90260610047563    1.62180989631118   -2.12840323113495
C         4.44548609772151    3.00984273878437   -2.00270091351677
C         3.85323953545432    3.83327824812098   -3.15270967633643
N         4.45104890410905    4.53727607513493   -4.06191582671036
N         2.51865984642726    3.63688614118501   -3.46629704409424
C         1.37638536913834    3.23700305237862   -2.62177972652947
C         0.14353182690997    4.00213959873389   -3.16883552510936
O        -1.09449287062175    3.48798230865849   -2.67752799690808
C         0.98935858399345    1.74857997020873   -2.76696413847686
C         1.83449037019924    0.61425899209395   -2.11964672349121
C         1.08454416030555   -0.35297085889545   -1.15199821102022
N         0.34100255028131    0.42784825858533   -0.15101401848965
N         2.89919852414744    1.19439800521930   -1.27739247396433
H         3.60062626271047   -1.17605001741544   -1.51759360277528
H         4.34563914648457   -1.74465449055259   -2.97579361594669
H         2.59445657342511   -2.10267252008196   -2.83897644168833
H         2.36902968130051   -0.26610291467648   -4.08898586025685
H         5.53259746442292    3.10888773317544   -2.05789240947698
H         4.23578950619791    3.40136332426868   -1.00534793299580
H         5.47278392456516    4.57721546786684   -3.95866876374690
H         2.40354997395411    3.75456843052045   -4.47565634105869
H         1.54874864585284    3.57546563848476   -1.59110332099453
H         0.16382631923124    3.93650594841720   -4.26149647612649
H         0.25908717773580    5.07354327745373   -2.96229146596329
H        -1.81017305839477    3.97105299930728   -3.13284309388613
H         0.73936602823668    1.52392013381201   -3.81247926171800
H         0.05715320622897    1.65792212825070   -2.19320533009633
H         1.93172883293261   -0.85637547028518   -0.68691188046471
H         0.43410867948074   -1.08508238781657   -1.64659612116574
H        -0.45093711854080    0.91699523879959   -0.56084731445614
H         0.04703135287561   -0.23846523459130    0.56494851584711
H         2.58971918409657    1.85962157861068   -0.57173418260267
