35
 energy: -49.721139053306 gnorm: 0.109460410238 xtb: 6.4.1 (79825abcba525fcdf90b791dcacef51065a7a4e7)
C         3.68995418412928   -1.30402876892338   -2.42761850105991
C         3.13889787945058   -0.08591157727019   -3.15426278410329
N         4.07837534284914    1.07051901045698   -3.07724064575179
C         3.79806146366635    1.61858804755594   -1.93012560938698
C         4.06260206639851    3.06106031077567   -1.63610688325491
C         3.64425436298948    3.77409636943482   -2.92757387055065
N         4.47203718438829    4.21649652245707   -3.82127544863405
N         2.28013299056635    3.84034944126416   -3.15734169361210
C         1.15584966341033    3.04606868686071   -2.62535292147233
C        -0.18202231538223    3.79283189616538   -2.86425685145074
O        -0.18952653621291    5.00297640164012   -2.10666862922750
C         1.18290572177793    1.63222949697541   -3.24712317148871
C         1.87476588798348    0.50513637253123   -2.42801250857980
C         0.95472998754569   -0.58194521192217   -1.79076520325085
N        -0.06608510489094    0.07552013068017   -0.95999577293154
N         2.67666344016163    1.07664007188720   -1.32805760243252
H         4.72628326834230   -1.44920997664564   -2.75506640776199
H         3.17609706239791   -2.21823737749695   -2.74276221653784
H         3.76127903161337   -1.30328038371153   -1.33800394887051
H         2.99026756886856   -0.31320286195994   -4.21866971995889
H         5.09397231906759    3.33693132629346   -1.40193231781972
H         3.48455247216088    3.34351242522229   -0.75403348575482
H         5.46182223924459    3.97157915066186   -3.69267300615972
H         2.14367865607554    4.21155336951033   -4.10047130160900
H         1.28263124689041    2.88416827860869   -1.54633736384535
H        -1.04772965112584    3.24751610311737   -2.47463000289897
H        -0.27525507244924    4.07391832784440   -3.92076875104674
H         0.69505527383236    5.39686752095180   -2.23008689433554
H         1.57673962813472    1.58082803071545   -4.27099960146063
H         0.14635240156035    1.31064393670817   -3.41613445541045
H         1.66062197766070   -1.03616895294523   -1.09589783205673
H         0.58080561053325   -1.39907637034631   -2.42017598028387
H        -0.64653704769696   -0.61751614732394   -0.49397774963707
H        -0.74265093430606    0.54357038265066   -1.56512611106276
H         2.12573865333343    1.62054952578237   -0.66707509166724
