35
 energy: -49.721441890826 gnorm: 0.109140052310 xtb: 6.4.1 (79825abcba525fcdf90b791dcacef51065a7a4e7)
C         3.51218735664817   -1.52548675521234   -2.77499624854216
C         3.02719478553249   -0.13400823603968   -3.15454095708528
N         4.09239262213557    0.88904543986082   -2.94336153232901
C         3.76677092942570    1.62409703447037   -1.91939957809197
C         4.27159149116205    3.00752704971537   -1.65780348057358
C         3.60299201704059    3.96591204458532   -2.65067564214067
N         4.05971465065911    5.15294144949243   -2.89969458247926
N         2.49180810211439    3.53470233762170   -3.35589782720631
C         1.23976279169490    2.91469084869313   -2.88063447530466
C         0.00555655855422    3.73607106886273   -3.33527865934866
O         0.03185695124533    5.07695695479429   -2.84560602766083
C         0.95917817849695    1.41490815664463   -3.12187230161180
C         1.85094387819519    0.45032549750654   -2.28863407689850
C         0.93915157457610   -0.60557459172723   -1.59005954552417
N         0.01337805937440    0.06607989944332   -0.66468090618475
N         2.62792727257531    1.18323882651476   -1.26947176999924
H         4.34075152954037   -1.72413369241084   -3.46514006899139
H         2.88036815094094   -2.31270202160376   -3.19954153092206
H         3.80732608550830   -1.75284793657795   -1.74857153801550
H         2.70986564988501   -0.11632217439090   -4.20606549164932
H         5.34579884342530    3.01947813393054   -1.85930504374787
H         4.18408044321549    3.41125227122224   -0.64719883042031
H         4.94742910946829    5.19153330961150   -2.38329233530836
H         2.43637127692256    3.93657955826711   -4.29468803213178
H         1.28791030006100    3.00699774242288   -1.78714412176094
H        -0.88306061175972    3.28842712904149   -2.87854895472090
H        -0.01747809061650    3.85209319253744   -4.42611668606330
H         0.81190707294945    5.47628494604125   -3.27563652040243
H         0.87263577995974    1.12219712527627   -4.17681347070345
H        -0.02326706628595    1.31835819643631   -2.64030783456236
H         1.58209880168984   -1.42592048102760   -1.27210538363796
H         0.19395755556102   -1.00762886524040   -2.28771200258169
H         0.43955874424998    0.28549430790897    0.23232738844364
H        -0.81575729206847   -0.50736650059596   -0.50131358469188
H         2.18804599233988    1.74428218206005   -0.54284374080970
