35
 energy: -49.718652479174 gnorm: 0.120881772249 xtb: 6.4.1 (79825abcba525fcdf90b791dcacef51065a7a4e7)
C         3.61065594969018   -1.27572242053536   -2.68785757429439
C         2.96713898550970   -0.04998146234832   -3.31946622479583
N         3.89664161049958    1.11587398987246   -3.26762076784961
C         3.70170570054031    1.64254564316284   -2.09312284218680
C         4.15577110196730    2.99810982128299   -1.65332140979174
C         3.65981441004145    3.92651810839838   -2.76840310452128
N         4.24601079097913    4.98318603778853   -3.23688093661829
N         2.45311039270277    3.53784952068497   -3.32590823868043
C         1.27824894909682    2.93719974220529   -2.66497904285882
C         0.07443633450449    3.81856850359453   -3.08765638274325
O        -0.05862748478989    5.00653631750255   -2.30696921686684
C         0.91763328682366    1.48096950958924   -3.03324713793508
C         1.85620015031886    0.45962259865152   -2.32904941333000
C         1.05372180298456   -0.73525088936777   -1.72688462693105
N        -0.02714318509055   -0.23057681027681   -0.86575924115628
N         2.73404325986871    1.05187294789448   -1.30036678480264
H         3.69146480245552   -1.16777060196798   -1.59969673140426
H         4.60157936207258   -1.40692498732172   -3.13506978769864
H         3.08108885156634   -2.17525818305171   -3.00839114888499
H         2.58334909430323   -0.14995859212414   -4.34388035993755
H         5.21947189051701    3.12799889528314   -1.43806206864468
H         3.76141596685099    3.20396979309086   -0.65628595756100
H         5.22248528191177    5.06174937044172   -2.92619953556121
H         2.13709499188213    4.15887306600579   -4.07448663751692
H         1.30591222758270    3.14567330936978   -1.58686337303109
H        -0.89304795395543    3.32221215310186   -2.96025104837468
H         0.08817123380291    4.17304156048220   -4.12596246965073
H         0.70130256085216    5.56684811564773   -2.55480843082314
H         0.95949053523591    1.16348002024769   -4.08373207213499
H        -0.11324441020550    1.42303037737161   -2.65860182582610
H         1.69508641946886   -1.41658120044468   -1.16841905319403
H         0.57345528628903   -1.26679456305068   -2.55783956440591
H         0.22988219259463    0.45219695988186   -0.15713065744474
H        -0.77398472369285   -0.90278602678428   -0.68311869495098
H         2.31951035158380    1.61090718638592   -0.55746929938770
