35
 energy: -49.720702290824 gnorm: 0.103663928517 xtb: 6.4.1 (79825abcba525fcdf90b791dcacef51065a7a4e7)
C         3.74268730483165   -1.37241291356259   -2.64829370837337
C         3.04000142280620   -0.11320741540884   -3.13421397089390
N         3.94571444442236    1.06436810621004   -2.99680286539191
C         3.64461349473891    1.67731156494416   -1.88844058724429
C         4.01892718851731    3.09698143181443   -1.60281560267791
C         3.54102457840236    3.93370963251731   -2.79563461667852
N         4.14080728536020    4.98466133061920   -3.25975316555771
N         2.41418868320425    3.39791801522688   -3.39661553190199
C         1.23640802973107    2.91594857199952   -2.64932363011429
C         0.09535334812375    3.88726927863899   -3.04827492123155
O         0.38831181891063    5.28143071546121   -2.95374886911208
C         0.97127153973488    1.44570632524261   -3.04221284424870
C         1.82370831692591    0.39444394867069   -2.27530303643591
C         0.79679922764724   -0.67572348155843   -1.79105522110544
N         0.09209853344033   -0.16871577924081   -0.60326647855382
N         2.64338438130363    1.00549101628559   -1.21026333803058
H         4.65379844417076   -1.60955185476935   -3.21036069027616
H         3.18813504202865   -2.29658215273117   -2.84200762804566
H         4.15361392636967   -1.36788225376447   -1.63662852318785
H         2.69322036513754   -0.30622787965629   -4.15851881665519
H         5.08401162190102    3.31532747035454   -1.49062253503234
H         3.52209005783332    3.55880866395724   -0.74733768545898
H         5.02305012491511    5.15966523244998   -2.76254217214924
H         2.20365056923265    3.72720791844623   -4.34168032378354
H         1.34478797442208    2.94000880364787   -1.55651313269294
H        -0.68840187109684    3.62038018745858   -2.33194708757403
H        -0.24361366468721    3.64195887503904   -4.06259415065844
H         1.14649790619215    5.61124176652552   -3.47263786000960
H         1.23085024781928    1.40624134541332   -4.10857658486313
H        -0.10168065186902    1.22143565271749   -2.97220475171159
H         1.24342214967674   -1.62716285208879   -1.50341926092558
H         0.20446838113439   -1.01679529675226   -2.64924802469230
H        -0.31183173769034   -0.93736525180165   -0.07372435296163
H        -0.66934208582511    0.42918680990862   -0.92840608482682
H         2.15204235682558    1.39159257300955   -0.40667011160815
