35
 energy: -49.721107576066 gnorm: 0.111087846178 xtb: 6.4.1 (79825abcba525fcdf90b791dcacef51065a7a4e7)
C         3.65575874278169   -1.23593926426555   -2.85163688302863
C         2.87653533387993    0.01675418264771   -3.22453696857729
N         3.88727036089432    1.10133512667816   -3.05726201960748
C         3.63535622866492    1.66977135131996   -1.91347533394559
C         4.22613166351346    2.96101942675966   -1.44356280638535
C         3.64782821138745    3.82927129376360   -2.56740711490767
N         4.38098277814074    4.69072481921943   -3.19988401299095
N         2.36597842117480    3.63786312366535   -3.05549918426688
C         1.08810942443693    3.01333406158475   -2.66189883829158
C         0.03998686405093    3.82090479929656   -3.47053994651490
O         0.17933861378229    5.24106256432025   -3.51721936562850
C         0.78444604109149    1.51106676351203   -2.85490930945036
C         1.74286163131528    0.45864279895916   -2.22737838553713
C         1.04052537191376   -0.77763591749523   -1.58501143687228
N         0.11007566218647   -0.41748185845410   -0.50378325980537
N         2.56920896162564    1.13834234809560   -1.21016867866508
H         4.40216390231631   -1.24168614171455   -3.65483299968055
H         3.08806540057821   -2.17062023562656   -2.90853886149840
H         4.14295258601889   -1.19407363720421   -1.87529826389727
H         2.52266569930718    0.18124764487711   -4.25139266271923
H         5.31266101330280    3.07984713242575   -1.44251314433289
H         3.88348833314210    3.23557512519624   -0.44396852347710
H         5.35860190927465    4.82484615000812   -2.91270833896816
H         2.35570881172484    4.18453781967446   -3.91976008922025
H         0.89708448100832    3.26838572181020   -1.61070046928134
H        -0.93551151789021    3.67660644415324   -2.99492614216603
H        -0.10153295113940    3.51137689834352   -4.51365257189195
H         1.09258391108487    5.52217242569910   -3.71678773119480
H         0.69212729223858    1.25202522330966   -3.91813315193354
H        -0.20357863486720    1.46271609170635   -2.37752651265331
H         1.69942739239698   -1.59207574614412   -1.28504601293245
H         0.36997859197309   -1.15122849588157   -2.36889683699795
H         0.59476039791074   -0.06528786991603    0.31806626414873
H        -0.27848842618316   -1.32254499503508   -0.23383186366538
H         2.02094294820025    1.79494977432469   -0.65833122953477
