35
 energy: -49.721854368746 gnorm: 0.116430560649 xtb: 6.4.1 (79825abcba525fcdf90b791dcacef51065a7a4e7)
C         3.69393048115497   -1.53923707180968   -2.78430892451237
C         3.04759483220543   -0.20111637678573   -3.11167365373798
N         3.99876783643696    0.94715038557316   -3.06033788247167
C         3.72308471393133    1.62120417921503   -1.98122772993512
C         4.27722893900763    2.98825226140362   -1.73372287393529
C         3.59795966162448    3.94507625594834   -2.72084155336111
N         4.15287224809950    5.01081902129037   -3.20654639593876
N         2.31662545153932    3.69738242257180   -3.18435018926060
C         1.15861005973677    2.95324721612328   -2.65221286957925
C        -0.11541419572821    3.69320676785128   -3.13590068570835
O        -0.11903790300556    5.07261389585205   -2.76756821803798
C         1.07544429658898    1.48496177936196   -3.12496320149539
C         1.85522897880250    0.42336906301299   -2.29737123964683
C         0.87407222677622   -0.58335147561963   -1.62050954774698
N         0.11168993447084    0.03347414433862   -0.52378653435648
N         2.61851587445797    1.17244279971189   -1.27960967423485
H         4.56546062464899   -1.53225042032823   -3.44963897854697
H         3.06268207301248   -2.39101168545467   -3.05843942424094
H         4.11421639103397   -1.61611701477159   -1.77942241825294
H         2.75043009750559   -0.24379257136070   -4.16836011990233
H         5.35694771755988    3.10531837604103   -1.85688952052415
H         4.07400003448537    3.29235260915964   -0.70503682163129
H         5.16530512777642    5.10272259209888   -3.05577848827937
H         2.24354507542574    4.06204451758810   -4.13702348848749
H         1.16865783923693    3.05170695824199   -1.55824549761145
H        -0.99153433431139    3.25536730419071   -2.64667915543170
H        -0.10589291630292    3.59317294126439   -4.22852226431006
H         0.80524421825267    5.27696788453957   -3.00591517317086
H         1.60252820624639    1.36897136084696   -4.08141445670852
H         0.10033864286016    1.16640294697650   -3.51753688506501
H         1.50508425205105   -1.32978238803443   -1.13873358004659
H         0.28375457703975   -1.03367296852909   -2.42823248038141
H        -0.27044227306694   -0.55713210979287    0.21075806180156
H        -0.54513832617669    0.73813793709137   -0.86293349143186
H         2.27341574975867    1.57926702361592   -0.41263018747571
