35
 energy: -49.714701862082 gnorm: 0.123137534234 xtb: 6.4.1 (79825abcba525fcdf90b791dcacef51065a7a4e7)
C         3.56870860366533   -1.44083863621492   -2.77227603214043
C         3.02265948289097   -0.07403801481666   -3.15850247034445
N         4.03998548635648    0.98051322457380   -2.87769739645514
C         3.66530385091701    1.73539681578085   -1.88543087371754
C         4.24857732921238    3.09777297985226   -1.68324738178050
C         3.62915008543553    3.90144952648082   -2.83291519951116
N         4.17391671517622    4.94310557232030   -3.37865031185038
N         2.44530469652067    3.48788031194826   -3.42069104814810
C         1.23508856819909    3.00994282007898   -2.72437241826562
C        -0.04744135876845    3.82758907316274   -3.02637142082266
O         0.00604293126618    5.23810104371412   -2.81179892677267
C         0.90129143746743    1.50901776613119   -2.87294892792348
C         1.86772329680059    0.46827511898848   -2.23827114951937
C         1.05162546636331   -0.75533095166278   -1.71762820426075
N         0.01446975385975   -0.23248118302046   -0.81461207675776
N         2.61385065675802    1.17781560795082   -1.18025262701145
H         3.48481457783855   -1.49932145651565   -1.68057129366851
H         4.61944213697376   -1.37018790857787   -3.07245864592527
H         3.08691224475497   -2.21269468309764   -3.37597974955442
H         2.86287472834699    0.07521973054878   -4.23502714409885
H         5.33882998672346    3.07058887248123   -1.75589244124850
H         4.01742181476870    3.56900304859354   -0.72591601634896
H         5.07198360113592    5.22656456897538   -2.96715981355979
H         2.47242544701014    4.07181549782635   -4.25985120145115
H         1.29099992814184    3.09717197479195   -1.63083463428694
H        -0.82018302068910    3.46148008753846   -2.34265940135384
H        -0.33934490716966    3.64126572582670   -4.06752234822375
H         0.79483393385436    5.43109147863842   -3.35349137486662
H         0.78784406349171    1.27017477469960   -3.93885414145371
H        -0.07657925612489    1.27799545435973   -2.42930214388070
H         1.47834894845301   -1.65814466500301   -1.28141974862471
H         0.57560772441911   -1.10657867244212   -2.64159404005672
H         0.50174728885475   -0.06937685966129    0.06308611985956
H        -0.74680718222723   -0.88299482357741   -0.61390205002019
H         2.18191541465619    1.72940468873685   -0.44171697619510
