35
 energy: -49.714506587026 gnorm: 0.113798163764 xtb: 6.4.1 (79825abcba525fcdf90b791dcacef51065a7a4e7)
C         3.56493428048322   -1.30760067193165   -2.93925467672491
C         2.88876209425989    0.03451816745272   -3.17798592308635
N         3.89949588131589    1.10870518969903   -2.95343873367917
C         3.65297473634009    1.71157317531009   -1.82622716508656
C         4.27129776361836    3.05347507122212   -1.59356682035260
C         3.67470372758554    3.84973741383798   -2.76034187305341
N         4.12036881264249    4.96485973528583   -3.24771200690346
N         2.60002630919716    3.32831061265096   -3.46119305880912
C         1.32879177285829    2.95466654684190   -2.81137784475520
C         0.13793370169915    3.83689878357433   -3.26761806463089
O         0.20422699276571    5.20284398379225   -2.85744145637901
C         0.80621253894801    1.50189682198827   -2.86278374252254
C         1.75953196095086    0.48109427755431   -2.17787800355435
C         0.95163219148700   -0.75694670669568   -1.67903034139058
N         0.05564170826396   -0.38816653173706   -0.57191508566539
N         2.60325798623782    1.11869705033340   -1.14775859808593
H         3.80596885407866   -1.28491151531975   -1.86983183487465
H         4.46078366937514   -1.30255827838456   -3.56899313253856
H         2.92067173008607   -2.17304239056457   -3.10743331776280
H         2.63468813842560    0.08247986413048   -4.24562841858160
H         5.35450998317816    3.19945893709674   -1.59623397556638
H         3.81673524441483    3.51234656284497   -0.71334873943435
H         4.91428904647811    5.38490265860434   -2.74826013995161
H         2.46067639536770    3.98908359691046   -4.22922057587354
H         1.48313828779210    3.07993642099806   -1.73107950815005
H        -0.66303292296516    3.37131753249664   -2.68425354545688
H        -0.00831440590992    3.72448782907457   -4.34923471919222
H         0.42301013373900    5.89545952875659   -3.50958016769908
H         0.60623641514362    1.16883334426130   -3.88998793565792
H        -0.14627020360945    1.53871503099855   -2.31703114582568
H         1.56757398934617   -1.60454259174704   -1.37963051779583
H         0.37736615798835   -1.07642520961965   -2.55757044363391
H         0.73447418950433   -0.23346777475166    0.16946963038350
H        -0.56632149877862   -1.08775028341104   -0.16357769979535
H         1.96281053378767    1.62460476665567   -0.53936898936636
