35
 energy: -49.722241126014 gnorm: 0.095762408848 xtb: 6.4.1 (79825abcba525fcdf90b791dcacef51065a7a4e7)
C         3.38279155700013   -1.44376493445343   -2.59640039528304
C         2.90289967390779   -0.09955707643053   -3.12393567436049
N         4.04934815116558    0.85431361803505   -3.08308719829943
C         3.74463942462621    1.67328015375047   -2.11806138198252
C         4.41146967847246    2.99788566241883   -1.92334981932951
C         3.85844777022487    3.87931405516122   -3.04965925975400
N         4.47083488473700    4.85683165819097   -3.64049440104983
N         2.60791629632419    3.51650905112690   -3.52141492460102
C         1.35539536585221    3.12357338920089   -2.84710056782324
C         0.22493897970902    4.10823323820079   -3.24351596566238
O        -0.77299289927880    4.17029940798192   -2.22433702523045
C         0.91774470442380    1.65118327964029   -3.01081005949741
C         1.77752968261042    0.58920427403235   -2.26722275890740
C         0.83943521265219   -0.45553242675479   -1.58692829184745
N         0.21747919396518   -0.03114922483335   -0.32297750843395
N         2.71031870788393    1.22534933245398   -1.31602296604923
H         3.42639762698318   -1.44682249013261   -1.50078785094982
H         4.32809917229354   -1.65694323297591   -3.10639118904424
H         2.67079745068483   -2.22379370514942   -2.87382998720302
H         2.54328498028949   -0.18179303275669   -4.15864768670791
H         5.50375544170612    3.02022557153767   -1.95621125294306
H         4.12568477803642    3.40815217698961   -0.95279205147967
H         5.40145912801840    5.12075009319257   -3.29338758926290
H         2.39136167524839    4.12016947336302   -4.31803515857744
H         1.36745159932746    3.27015896767513   -1.75855695086669
H        -0.23503478298061    3.90486880059139   -4.21598428493449
H         0.74044617134779    5.07682149785245   -3.24060862346711
H        -0.67028722223573    4.97220859848325   -1.67728999413869
H         0.76453214527141    1.37633361717203   -4.06297628880496
H        -0.08820551507404    1.57449865353956   -2.57651925815807
H         1.46617232662938   -1.32732344067067   -1.40085200779702
H         0.15249720133949   -0.77056606325418   -2.38225884537916
H         0.74065647039735   -0.45890119129717    0.43709507500770
H        -0.70317500002446   -0.46891599083068   -0.26173047056583
H         2.26409134815070    1.62096630707377   -0.49102488748070
