35
 energy: -49.725605097851 gnorm: 0.125583956771 xtb: 6.4.1 (79825abcba525fcdf90b791dcacef51065a7a4e7)
C         3.53994258220587   -1.29342860115386   -2.16526002979071
C         2.85303921885392   -0.15473572213914   -2.90487259059781
N         3.94988736521889    0.82242800793682   -3.16555858069739
C         3.80549171763214    1.69135338338659   -2.20694135245180
C         4.36623737457681    3.07639949255195   -2.27302078035365
C         3.58882873800348    3.64754903047354   -3.46497135440508
N         4.01459670998670    4.37917016931410   -4.44634637474339
N         2.20614319644251    3.67925211331002   -3.39296148287136
C         1.25946012430476    3.10923306646688   -2.41481200660595
C        -0.03022729167830    3.96041469202088   -2.54453488593693
O         0.19458635492447    5.22528900890735   -1.92164023980088
C         0.96521722647403    1.63834289175048   -2.78383060609961
C         1.84889075577889    0.63584111785608   -1.98754989753360
C         0.96502917107854   -0.17846158265059   -0.99256429033275
N         0.00369892946308   -0.87176609902038   -1.86415765460634
N         2.88295094058310    1.36672239226881   -1.22854460119152
H         4.16336247237301   -0.89305345186469   -1.35697477023365
H         4.05663154432071   -1.91453914501997   -2.90444626439755
H         2.83593009863346   -2.03034509842608   -1.77325471819796
H         2.47228700100433   -0.48477061381047   -3.88099713392399
H         5.43558103473853    3.15098168181722   -2.48658283622486
H         4.18676795606427    3.64252436622145   -1.35690542826687
H         5.04143865132414    4.37970317530994   -4.48868909152713
H         1.77050174014648    3.95627229444337   -4.27578758513544
H         1.57913416429416    3.34976669891737   -1.39182034059110
H        -0.78020894133307    3.52471623447049   -1.87646155680469
H        -0.51993603514473    4.05237380053690   -3.52210748411427
H         0.73927525219103    5.76219298711791   -2.52820052841119
H         1.20865919384678    1.45502753945935   -3.83891434505078
H        -0.04092754380204    1.25881751945343   -2.56009402697368
H         0.46247548817224    0.46988573872251   -0.27525759020592
H         1.69643676845644   -0.75282431356506   -0.41047229838079
H         0.45527963582013   -1.48124983166885   -2.54165376786003
H        -0.68991988602300   -1.40648545704148   -1.33883562767569
H         2.50471451252167    2.00786330343238   -0.53418949795515
