35
 energy: -49.722950862938 gnorm: 0.117407975504 xtb: 6.4.1 (79825abcba525fcdf90b791dcacef51065a7a4e7)
C         3.32419342756392   -1.44694201404301   -2.51095830049090
C         2.91467831494632   -0.09014725390570   -3.06493466989989
N         4.11726069423033    0.79198535245752   -3.10391804883769
C         3.85287345649084    1.67969241050346   -2.18909347409565
C         4.53587818853686    3.00496254984458   -2.06943332300641
C         3.87413312030742    3.89984458548472   -3.12423273945194
N         4.53130724435239    4.73348324035913   -3.86774708418827
N         2.53381777063023    3.78314314929248   -3.45278317602203
C         1.42550318662108    3.16491930823336   -2.69956006766770
C         0.10271845093326    3.87231401457434   -3.09258058222794
O        -1.03740267704943    3.41871301611230   -2.36263818039131
C         1.07261740114610    1.67948274276278   -2.93455238955557
C         1.91897406336179    0.66694848946686   -2.11089802090301
C         0.86613945038623   -0.21790069592319   -1.37409561642283
N        -0.15850055955647    0.52515805804459   -0.62410993960889
N         2.89408511854210    1.35886280101531   -1.24488994804554
H         3.67342977154191   -1.40840174431172   -1.47229266198836
H         4.16907669016618   -1.86942672166404   -3.06487258099929
H         2.45894842311394   -2.11165917642521   -2.55396816715453
H         2.56806192094186   -0.25314354290634   -4.09449948655030
H         5.60360922052268    2.97521970931440   -2.30123701573032
H         4.36439967132157    3.48765221841636   -1.10528612943882
H         5.55537814162124    4.72707921462696   -3.78151860690240
H         2.29242603470224    3.92382009727995   -4.43657462929781
H         1.62157579578201    3.46986147919892   -1.66267738432224
H        -0.13318931624890    3.73518236046115   -4.15284943219284
H         0.19192395633428    4.96574097859043   -3.11205320913045
H        -0.71610221838487    2.95454376532699   -1.56628387278609
H         1.16227646125286    1.45379037259098   -4.00557733179696
H         0.03714667387109    1.46417009607515   -2.63813086566402
H         1.24298018447452   -0.97157561579262   -0.68314805114717
H         0.43480385857786   -0.78865907840080   -2.20587996054333
H         0.16892197678013    0.90872450611841    0.25910453073766
H        -0.91001833972868   -0.10858782825065   -0.34737493342034
H         2.52639239464032    2.11441023096392   -0.67025646797799
