35
 energy: -49.715951798673 gnorm: 0.125500777499 xtb: 6.4.1 (79825abcba525fcdf90b791dcacef51065a7a4e7)
C         3.58213772055922   -1.54919613681284   -2.87749242305202
C         2.96423185244799   -0.17019640818189   -3.05647996203895
N         3.98327547138789    0.91689434394627   -2.98120832514519
C         3.74782829231185    1.63779862270841   -1.92305423040782
C         4.34509924505814    2.99233259954008   -1.70937204901347
C         3.66398111986790    3.93831467736840   -2.70562413502114
N         4.11181034472553    5.08799365508097   -3.10227518236033
N         2.46624807042146    3.51911103556008   -3.26034362100924
C         1.15363677113893    3.00997995935841   -2.81791384022726
C         0.04036245949440    3.85340558047546   -3.49162398689165
O        -0.12017914021966    5.06108817360962   -2.74719460034213
C         1.04083013124323    1.47880597041788   -2.98836155891044
C         1.85600000780712    0.46345505490340   -2.13717867666295
C         0.94238737850152   -0.61911676013095   -1.48323156892548
N        -0.06374689506112    0.00109561205984   -0.60714229107811
N         2.74031773684883    1.10104552650923   -1.14168005160059
H         4.35485710840661   -1.64786891972285   -3.64914397349711
H         2.79439663514224   -2.27787405394485   -3.09574585308252
H         3.96110994462877   -1.75713013144401   -1.87475059497580
H         2.74764785452314   -0.04549769218589   -4.12617900270807
H         5.43010772059388    2.89800370248964   -1.80170736898752
H         4.05394818129051    3.26590883849040   -0.69332031912219
H         5.09178597922839    5.26897457508432   -2.85109550639932
H         2.33915313512426    4.02942623308648   -4.13745871585721
H         1.04329450950482    3.14352123564501   -1.73322438735529
H        -0.93212328933777    3.35090563992637   -3.47180299652143
H         0.41514691608130    3.96838352537163   -4.51643422184956
H         0.74798347634691    5.50722347758607   -2.73604905270093
H         1.43982827974712    1.33939499609854   -4.00198638448643
H        -0.01767642627155    1.18859928593541   -3.03041895726802
H         1.71933863974813   -1.19019059689081   -0.97562464827380
H         0.49503305175730   -1.16654285373207   -2.32220683556153
H        -0.29743720965998   -0.68256472441896    0.10867467036065
H        -0.96755234999448    0.18642489243367   -1.04507361415369
H         2.15957826742643    1.62843857054117   -0.49294918071370
