35
 energy: -49.716410387237 gnorm: 0.115000875044 xtb: 6.4.1 (79825abcba525fcdf90b791dcacef51065a7a4e7)
C         3.67284234801938   -1.39191159617237   -2.62185895007586
C         2.97362572403559   -0.18382211960243   -3.22774704508976
N         3.95595992228678    0.93795956646431   -3.17767331662395
C         3.69036708677959    1.59242663304404   -2.08407297707694
C         4.15754898061983    2.97970691682694   -1.77690955522107
C         3.66816484470260    4.01017436365147   -2.80158616312294
N         4.31887141498993    5.10208582891461   -3.05447957470917
N         2.37944090804077    3.76450309417468   -3.24525952844025
C         1.30592298702307    3.02790438174597   -2.55035768289279
C         0.00757921721274    3.69809143928038   -3.06976562378361
O         0.03300860374850    5.12274259873937   -2.97938653271859
C         1.11722416780838    1.56543705173489   -3.01063324336688
C         1.81961778149806    0.36655676766788   -2.31114703551943
C         0.79973225498450   -0.68471752416136   -1.77360408783663
N        -0.11923648680144   -0.10934589673992   -0.77914649289281
N         2.76250599623283    0.91299621435107   -1.31519387811811
H         3.85400624909801   -1.33148103095686   -1.54213423076008
H         4.65527378891574   -1.41198524638679   -3.10514726713771
H         3.24083631002202   -2.36543810000233   -2.86261732768022
H         2.59499208032405   -0.32670181142391   -4.24898961135007
H         5.24939568091165    2.99309291973050   -1.82547624601844
H         3.89672470763453    3.38482665007566   -0.79720415021505
H         5.25337814224253    5.36608897456127   -2.71803187162800
H         1.98885059253990    4.53854566561606   -3.78766426000223
H         1.45638028064475    3.01884511221403   -1.46231337841574
H        -0.85465117188856    3.38632025169819   -2.47144707970280
H        -0.18529446986525    3.57942691241393   -4.14337533069862
H         0.43166132870639    5.53410709453178   -2.18899263361301
H         1.40170964397191    1.55423582304050   -4.07129942938518
H         0.03308843464605    1.39573558716818   -2.96292580710403
H         1.37328891495448   -1.53865478367227   -1.41406650852701
H         0.23802150481916   -1.06951550992845   -2.63389023215091
H         0.34735582066024    0.01644755666578    0.11576364916687
H        -0.99332022025261   -0.63056837180948   -0.69370738462113
H         2.24846022833792    1.50934017026862   -0.66991539203030
