35
 energy: -49.719911173398 gnorm: 0.117420127742 xtb: 6.4.1 (79825abcba525fcdf90b791dcacef51065a7a4e7)
C         3.66181006050794   -1.32033555115320   -3.02551321919468
C         2.90388770669443   -0.01749697985768   -3.23443859955828
N         3.91658685886476    1.04672311043490   -2.97413485269956
C         3.70417406344759    1.61912597605554   -1.82432434681594
C         4.10640817853070    3.03460198635584   -1.55638716514885
C         3.68188750331297    3.89215088816151   -2.75460012172611
N         4.30036170904163    4.92175917540380   -3.24146893942007
N         2.50810630052366    3.45007924777827   -3.34181406353120
C         1.25216807833528    2.97706809856191   -2.72798460079692
C         0.03089159371943    3.78432877071839   -3.23930230797994
O         0.11384437773889    5.16911928472289   -2.90178189568667
C         0.84884118981608    1.49382466464655   -2.88156802614393
C         1.77139308019583    0.42132017835460   -2.23458748270908
C         1.01227069555663   -0.76934177778462   -1.57099583325166
N        -0.11303547609586   -0.27975473032113   -0.75952031299927
N         2.61907162429819    1.03666660089186   -1.19422849765153
H         4.58430764583788   -1.41483957882165   -3.61061566736277
H         3.01686283108184   -2.20526030903104   -3.03517368358736
H         3.91083511376823   -1.17789169159439   -1.97192698847441
H         2.54889794830579    0.07115441584913   -4.27021735379956
H         5.17281838202964    3.24126280430739   -1.43502930187747
H         3.55664794246724    3.38774829074464   -0.68172986969776
H         5.22556028210266    5.02124067447597   -2.80522519939739
H         2.43808482574133    3.97612555279313   -4.21604394203546
H         1.35452810804737    3.36302873443739   -1.70469739574798
H        -0.83060068859389    3.39846430305448   -2.68471483959059
H         0.00916554945181    3.70669319409150   -4.33356919950626
H         0.88997362553413    5.53658316096810   -3.36595961163308
H         0.68694817611060    1.24143425740214   -3.93805273345854
H        -0.16827657405139    1.45359667722995   -2.46892042931430
H         1.75627285251557   -1.38018675612568   -1.06033688237944
H         0.71141958884543   -1.44797874758676   -2.37884556343035
H         0.22021174533070    0.48363284651999   -0.17592607385456
H        -0.54833283215147   -0.98669981485456   -0.16475990426300
H         2.22015818641007    1.64620543672247   -0.48318421811101
