35
 energy: -49.715571819454 gnorm: 0.107347854020 xtb: 6.4.1 (79825abcba525fcdf90b791dcacef51065a7a4e7)
C         3.56394738958355   -1.60186583335247   -2.48938486650101
C         3.03358234059571   -0.32162517784033   -3.11801930211320
N         4.04782409576833    0.76050277803458   -3.27986730209212
C         3.84222486530126    1.53885108513518   -2.25676843178333
C         4.49550885687755    2.87289379627406   -2.08153997502873
C         3.61714894231257    3.98383198474608   -2.66943655422516
N         4.15190549581858    5.10709892275809   -3.03268802415770
N         2.28828332857256    3.81050405264559   -3.01884097252575
C         1.16837449142466    2.93430586860722   -2.62388790718753
C        -0.14216499764864    3.52246258258461   -3.20800243379372
O        -0.32340906341848    4.90654924965165   -2.90816806451820
C         1.22306300086869    1.48819531928881   -3.16429980835958
C         1.94065725070243    0.43285737231555   -2.27476506637739
C         0.97730989452075   -0.47860069465955   -1.45287536990578
N        -0.07409826449134    0.38610417406321   -0.89490730077471
N         2.84847309988496    1.16532863522918   -1.36982682469049
H         4.39343760985853   -1.95977647099331   -3.11077334356149
H         2.83901214099959   -2.39266362588890   -2.70904329470785
H         3.86558988914952   -1.40950672879339   -1.45770785735358
H         2.46954713648440   -0.50298946132250   -4.04305212743444
H         5.41118158912781    2.81112891685682   -2.67516923198826
H         4.78489492994776    3.19914117476690   -1.08064420131571
H         5.15934043191414    5.07548041446558   -2.83200745854735
H         1.82193934383814    4.68061407046815   -3.28593168975330
H         1.23249945658142    2.90480625829518   -1.52772292784413
H        -0.99938063169064    2.91250043021119   -2.90509134673727
H         0.00620552395703    3.59243347030271   -4.29290316790250
H        -0.79509998765379    5.13818181784352   -2.08553735441947
H         1.64599745779491    1.69393559389108   -4.15670477297948
H         0.20377412438934    1.07928344902686   -3.18061432650255
H         1.61277465621531   -0.99761877288008   -0.73576439852029
H         0.51651469586069   -1.26739692467479   -2.06045171163285
H         0.32578545704156    1.16503421854199   -0.37745436952178
H        -0.86533254938020   -0.04139799194944   -0.41098035248420
H         2.52639743182029    1.82618679933631   -0.66570521299250
