35
 energy: -49.716732930366 gnorm: 0.110122658904 xtb: 6.4.1 (79825abcba525fcdf90b791dcacef51065a7a4e7)
C         3.63009387503431   -1.45410352612273   -2.94363467977108
C         2.91023430457242   -0.15298209928886   -3.26669766474056
N         3.84476697880151    1.00521434954548   -3.37210965039491
C         3.77704478048501    1.55732294955826   -2.19507175146597
C         4.44866256070909    2.86208570688463   -1.90579918342891
C         3.64071273118366    4.02402437464744   -2.49608535002036
N         4.20262350467716    5.15649002887561   -2.78143182950762
N         2.36792045146378    3.81634771036222   -3.00094178859506
C         1.22640678358741    2.96494688782101   -2.61368201713160
C        -0.03755525817822    3.65459163284041   -3.18937456936289
O        -0.20287204136698    5.06016220684243   -3.00099284108869
C         1.21762782095248    1.50471091290609   -3.11757224221971
C         1.87880638089955    0.41630826514111   -2.22416623607256
C         0.90619793256179   -0.60022147012709   -1.54963182691919
N         0.16772458732395    0.04238585925404   -0.45135366768999
N         2.88688460142970    0.98217480555973   -1.30594495693374
H         3.87080502037440   -1.45579114951171   -1.87389967401134
H         4.47845579531823   -1.74460383203826   -3.57215174883113
H         2.87164973088401   -2.23940792827987   -2.96381258861865
H         2.40490228169602   -0.23075808825102   -4.23896556913699
H         5.41030985119375    2.87053553439507   -2.42525103533452
H         4.60119386233502    3.06681114808217   -0.84429285392459
H         5.19389843546706    5.29099507501456   -2.54588998491639
H         2.04513141501716    4.65940660214355   -3.48152948569315
H         1.10430527993681    2.90657601615419   -1.52361599037992
H        -0.87004596873889    3.13554006250455   -2.70339897321990
H         0.02188063947105    3.45881098994580   -4.26736188229707
H        -0.81430184970974    5.12014497804414   -2.24242648407075
H         1.70981165089165    1.63084779616693   -4.09118139465540
H         0.19580164308811    1.18511439998278   -3.36283578174054
H         1.45224568188879   -1.42627340588439   -1.09475446404350
H         0.24061161050672   -1.08822944788006   -2.27248988203810
H        -0.56862033486214   -0.49063663142099    0.00480388933989
H        -0.38953630874398    0.83758973619214   -0.76774926325334
H         2.45367921986091    1.59523181637626   -0.61837845905455
