35
 energy: -49.724514275602 gnorm: 0.121020809732 xtb: 6.4.1 (79825abcba525fcdf90b791dcacef51065a7a4e7)
C         3.69490536906569   -1.25061502455776   -3.07904952348190
C         2.87781501548027    0.02121597964554   -3.25310033807605
N         3.92629683959117    1.06783009718360   -3.07655924759422
C         3.66517336961962    1.63567382421481   -1.93454503673430
C         4.27036978050909    2.93967809410303   -1.52167083463715
C         3.64981394507287    3.82826667979766   -2.60640258132142
N         4.23280356066749    4.79390642372982   -3.24460928226045
N         2.40712142448320    3.51304193670391   -3.13019498507619
C         1.13610126087211    3.00848887774737   -2.57536086435961
C         0.01710742252253    3.91240583120894   -3.15451433299642
O         0.28001287368277    5.25768402217312   -2.75507313780859
C         0.88842529257235    1.53344932390168   -2.96160746646817
C         1.76618339523021    0.47369036508111   -2.23607090100764
C         0.92231993917458   -0.74078159816575   -1.73882966909550
N         0.08012975428629   -0.25424223053031   -0.63497410670811
N         2.70115064245568    0.96416034725751   -1.20416375746247
H         3.82453189112170   -1.56798591405172   -2.03753602847906
H         4.65953506587102   -1.01673650913997   -3.54157786830573
H         3.21743529946362   -2.05490252287890   -3.64251346887577
H         2.53399812380192    0.01629505337845   -4.29640285517091
H         5.35623964866367    2.93438764819674   -1.64627329929613
H         3.81478985522038    3.27741490515609   -0.58874276489909
H         5.19057583918380    5.00342215024928   -2.93643241092281
H         2.24794811038403    4.10055230222385   -3.95202284027361
H         1.13737489160874    3.17672010595241   -1.48988562399912
H        -0.94823136765748    3.61845375523250   -2.72984883510384
H         0.04835079806910    3.75170237691083   -4.23946482791411
H        -0.16446091828446    5.83570340845861   -3.40407537086517
H         1.03441228600463    1.46133228131351   -4.04768164843117
H        -0.14608060209894    1.29986135836980   -2.67584692894647
H         1.56023509406139   -1.60124700713117   -1.53856264306598
H         0.26348067874049   -1.01370872561728   -2.57256962523748
H         0.63345891491823    0.24248676032713    0.05891614838944
H        -0.40859449800881   -1.03007636676597   -0.18527967542376
H         2.18633556263974    1.31647989471109   -0.39974480826730
