35
 energy: -49.719608915227 gnorm: 0.119815962359 xtb: 6.4.1 (79825abcba525fcdf90b791dcacef51065a7a4e7)
C         3.53133296414020   -1.49742822334259   -2.81240914504594
C         3.06840140682035   -0.09000577813142   -3.15931094593116
N         4.16070034809125    0.90956122601349   -2.97592387722577
C         3.79455163190348    1.66470893959832   -1.98067744424984
C         4.36358258937060    3.00617405417661   -1.64329035329936
C         3.61568523683112    3.90196098844782   -2.63804535970470
N         4.11966286930790    4.93122778705058   -3.24324055717271
N         2.40301716933766    3.54091203239058   -3.20115251036084
C         1.16585662885189    2.97018536503326   -2.63404419367738
C         0.01340850795740    3.81174793588307   -3.24089475369573
O         0.02392565766102    5.14065427904748   -2.71902955931805
C         0.84227433899853    1.47961419700936   -2.87851020084535
C         1.89939110757430    0.50236479742879   -2.28907028484237
C         1.05292463688554   -0.65241034537817   -1.66916268032235
N        -0.22071118417629   -0.20975424619024   -1.08059718399037
N         2.69486722190701    1.21667661615528   -1.27096748682796
H         4.08649727489307   -1.44004859850724   -1.86859886449351
H         4.23144819762259   -1.68277646198846   -3.63376581132299
H         2.77486929732252   -2.27772784907852   -2.70637672831360
H         2.83092640990613   -0.02726968508364   -4.23000428123160
H         5.40993308822191    3.18989365834928   -1.90032125392199
H         4.27176039632824    3.47834750971871   -0.66319091507454
H         5.10434277774386    5.14165340824383   -3.03751233277535
H         2.10462961172380    4.15852009921427   -3.95972402828111
H         1.14004652565269    3.12397989620615   -1.54673514469933
H        -0.99926736945926    3.51929810662284   -2.94494162012908
H         0.01695826727202    3.83046381081027   -4.33796195393519
H         0.89387811679246    5.45290862142025   -2.40510726887971
H         0.84279975269345    1.41447935695445   -3.97478908269989
H        -0.18671172213024    1.28992342515399   -2.54439949881536
H         1.61929832035087   -1.13202964406837   -0.87127199982821
H         0.78296312928875   -1.27599084357675   -2.53052721341026
H        -0.09140253174962    0.42569777503126   -0.29709444789965
H        -0.76906576472908   -0.98982731713773   -0.71482629646453
H         2.28812505311231    1.74889932378892   -0.50444725152502
