35
 energy: -49.717595479832 gnorm: 0.122799456791 xtb: 6.4.1 (79825abcba525fcdf90b791dcacef51065a7a4e7)
C         3.74490618449476   -1.27283256423763   -2.80606115027896
C         3.04671278431127    0.05089567362578   -3.08129549523380
N         4.05852159824264    1.08987598133943   -2.73108865497874
C         3.59404948920364    1.69510142324804   -1.67619708264114
C         4.04086515791991    3.11798595816527   -1.56257376734286
C         3.60313510498206    3.77919802908248   -2.87501926226791
N         4.34309597471294    4.58759150459641   -3.56683042855668
N         2.43063542145896    3.24916988226715   -3.38719550220278
C         1.20861695650604    2.96745830726084   -2.60923891919249
C         0.12377956262924    3.90460529380672   -3.20043699946135
O         0.11330377804478    5.32433379492304   -3.04974798549633
C         0.82530636687125    1.49086091293035   -2.85214763996496
C         1.80940969977871    0.47365468065912   -2.20655972572180
C         0.98291895102758   -0.76328911497145   -1.73626236233520
N        -0.12229310470179   -0.31341006811168   -0.87567121765372
N         2.49151604082713    1.12141808202378   -1.06871508537678
H         4.54449816245076   -1.34051081644373   -3.55328936337704
H         3.10715331123258   -2.15125984667767   -2.95020987156869
H         3.94688411907574   -1.25995225767758   -1.73303427512399
H         2.72469536536655    0.22986661143644   -4.11618128129266
H         5.12920360392531    3.18980736287459   -1.49166364094774
H         3.71141146826054    3.69588993040236   -0.69685947050011
H         5.28770232131014    4.73133026190951   -3.18833924189092
H         2.24928837377916    3.81405788152471   -4.22021435265803
H         1.31783477716995    3.29187737449787   -1.56550350993501
H        -0.81234028132372    3.62133034065006   -2.70843849125230
H         0.00722967933275    3.66919141175293   -4.26576124657501
H         0.95446328696685    5.67598768165594   -3.39854231200844
H         0.74094104805031    1.29209672493283   -3.92892314239597
H        -0.19116418026038    1.31308065677193   -2.47584102350015
H         1.66245347025340   -1.42738999565068   -1.20273990821253
H         0.56817932300336   -1.32697888229810   -2.58120353262298
H         0.48162791175019    0.21016447287256   -0.24674701798473
H        -0.54169082300281   -1.08560724991303   -0.35527507094454
H         1.95505617907982    1.70807522300155   -0.43287101310210
