35
 energy: -49.714701525075 gnorm: 0.119041727962 xtb: 6.4.1 (79825abcba525fcdf90b791dcacef51065a7a4e7)
C         3.56949377611393   -1.53083304132243   -2.89172030445272
C         3.05676444763522   -0.13270479673859   -3.20449891968222
N         4.10146533737699    0.90892884830638   -2.98205480155557
C         3.71873769056163    1.61735751724695   -1.95908033401978
C         4.37376391377753    2.95432413465829   -1.81549836585185
C         3.64458396953795    3.97265605691559   -2.70015584485734
N         4.04105341084765    5.13697973334184   -3.10857614358009
N         2.48224934118905    3.49595970317500   -3.28303545932442
C         1.29728084247266    2.99969298916236   -2.55676002257420
C         0.02231648405942    3.77317733934690   -2.98198900671754
O         0.12873692045064    5.09904670008981   -2.46315271975440
C         1.14024812191687    1.55305005892822   -3.07525449224595
C         1.87003256483247    0.40400493000808   -2.32221954941806
C         0.82099543702909   -0.62451958243252   -1.79690539996756
N        -0.02583685627183    0.07107839437025   -0.81531460404705
N         2.65498910043960    1.07029731971894   -1.26417673362749
H         4.15870163867004   -1.38575879533911   -1.97844858361880
H         4.29471597970977   -1.86619842805021   -3.64053596044954
H         2.81232229917195   -2.31444127697972   -2.82102983157880
H         2.79764123410863    0.00908820821151   -4.26254632557656
H         5.40770225321195    2.80371644364447   -2.13636586765289
H         4.33500953361802    3.31073950413551   -0.78426601415523
H         4.96342676790571    5.53785302968517   -2.89709201108306
H         2.20572641490489    4.09540647371646   -4.06412716160034
H         1.38258985465869    3.00080206236252   -1.46164311995069
H        -0.87405819360677    3.34292407736193   -2.52370725511612
H        -0.04705243378477    3.82976584800605   -4.07556343296956
H        -0.80196242006645    5.39266212821937   -2.48450642083787
H         1.26875460421466    1.60950600012387   -4.16446017188324
H         0.06354211851484    1.33732893597516   -3.09961537712048
H         1.34908953075635   -1.49046486184515   -1.39853528035136
H         0.20027906119016   -0.86834712680679   -2.66807703319512
H         0.25934352932070   -0.17036125262038    0.13061117607190
H        -0.94435075871577   -0.36485178105170   -0.91171055658434
H         2.26300085154611    1.60619986892625   -0.49255044536592
