35
 energy: -49.716589635092 gnorm: 0.126608521893 xtb: 6.4.1 (79825abcba525fcdf90b791dcacef51065a7a4e7)
C         3.54870348750911   -1.33448850948506   -2.80643930279553
C         2.88946787286307    0.01022620875261   -3.07594842263527
N         3.95721137934857    1.05007615515903   -3.14316368104083
C         3.72911209142255    1.75657798673779   -2.07374593898338
C         4.27017268416574    3.14847857171445   -1.98995363295283
C         3.56738270744022    3.82638320709612   -3.17226228340845
N         3.98321607036750    4.73962227286813   -3.99245849255141
N         2.33097073163656    3.28964869855484   -3.49039958156281
C         1.18143794098066    2.97535545641121   -2.61993931241961
C        -0.07145422828732    3.85436650545764   -2.86940391959691
O         0.37506155347841    5.18973939942544   -3.10572751619094
C         0.84622014350650    1.46904415239430   -2.54974823674068
C         1.89628182862685    0.48830761803742   -1.95352852195953
C         1.28024392813642   -0.60353235006011   -1.02472320748423
N        -0.07331148808902   -0.28592315036788   -0.54356409453755
N         2.84382869666299    1.26594255665719   -1.13073099481836
H         3.93223002610472   -1.34934988846597   -1.77932479379961
H         4.44395600820838   -1.49852688432357   -3.41533700570307
H         2.81704873562312   -2.13166206081959   -2.95321572477446
H         2.46505076905929   -0.03239085797861   -4.08825683302850
H         5.35935046070624    3.05707197861142   -1.98801935573428
H         3.87187502509763    3.53309787756344   -1.04899615646138
H         4.90077617929751    5.15799604112190   -3.79435650827255
H         2.06467749557774    3.66400259936844   -4.40410230732204
H         1.55178412206961    3.40968582614813   -1.68145078123272
H        -0.74038828280145    3.95345460611768   -2.00839499852039
H        -0.58681892693398    3.39598280553504   -3.72275199374052
H         0.88111732360098    5.14890054828097   -3.93945829190773
H         0.44303498550833    1.22811852071484   -3.54245501880817
H        -0.06673288504104    1.57881716608946   -1.94900576135529
H         1.87362660796735   -0.62019737828455   -0.11090559566050
H         1.35462256993468   -1.58828878649162   -1.50263875975662
H        -0.66624505840964   -0.35087210728191   -1.36734073450167
H        -0.36898859775117   -1.06041815600126    0.05286496047814
H         2.45251329298072    1.92684430706493   -0.46264820390099
