35
 energy: -49.720224279786 gnorm: 0.109661800212 xtb: 6.4.1 (79825abcba525fcdf90b791dcacef51065a7a4e7)
C         3.51095547508550   -1.48171245216692   -2.83932190666892
C         3.02712490543683   -0.09280365450019   -3.22960993531399
N         4.06625121823724    0.97435783500653   -3.14437594389144
C         3.80941284652516    1.62818981392392   -2.04830743254410
C         4.23232668133779    3.00270452545813   -1.63720150653974
C         3.66711640259411    3.94096651164208   -2.71029234517167
N         4.30105850096913    5.01516609719022   -3.06222622538272
N         2.47886152912653    3.60423882711814   -3.33692992067522
C         1.30705083651523    3.00283757304562   -2.67128496602887
C         0.03111348218795    3.68175260386080   -3.23314802415871
O        -0.21702692327309    4.99151161817867   -2.72187155962258
C         1.07886225730852    1.53552729592950   -3.09696330771738
C         1.84803296316949    0.42476060867213   -2.32590854999080
C         0.92924615474028   -0.56445747427822   -1.54387601521886
N        -0.15463844615963    0.13485968475060   -0.83630860854731
N         2.75261647617680    1.06851741769028   -1.35283981748313
H         3.93126700164223   -1.61455503944060   -1.83534544476588
H         4.25143100895276   -1.73690244509969   -3.60464283819615
H         2.68740549826474   -2.19529422066790   -2.90942294587367
H         2.85161800870789   -0.07696034674730   -4.31388882872273
H         5.30608417102907    3.20335238979186   -1.59909108719185
H         3.84730629202035    3.22974731784288   -0.64111674304993
H         5.25591731913686    5.22429310391099   -2.74488085553929
H         2.21866072776285    4.43881317086612   -3.86767167587734
H         1.32888747754685    3.01408605033059   -1.57312445551744
H        -0.72330218137975    2.98686430190590   -2.85024482866452
H         0.09636945194809    3.75420384208624   -4.32603951418500
H        -0.15894111355615    4.92649764809903   -1.74962340006873
H         1.43500379766109    1.45792686296730   -4.13292256446782
H         0.01664720439913    1.25613993346681   -3.10513288737360
H         1.66919902193402   -1.11252005669713   -0.96117496723654
H         0.36707995307738   -1.18710438028145   -2.25095499801605
H         0.25110373817359    0.55229053220457   -0.00232941040684
H        -0.90802034172180   -0.50483964481933   -0.57902361636590
H         2.30671026534252    1.55590299917166   -0.57832292388919
