35
 energy: -49.720499348457 gnorm: 0.117139164624 xtb: 6.4.1 (79825abcba525fcdf90b791dcacef51065a7a4e7)
C         3.62371470321758   -1.26556222619212   -2.99133977437215
C         3.02688903956950    0.13207724555347   -3.06806965209187
N         4.07235063648326    1.13926772621383   -2.72389034933207
C         3.66117369126867    1.74898646542672   -1.64964409292147
C         3.98552623207680    3.18909602125708   -1.40873980845941
C         3.62349745484780    3.74542573577532   -2.79104029521435
N         4.48487744829754    4.32189055886451   -3.56908762302784
N         2.32988233844526    3.64855478000563   -3.27599989262696
C         1.13726851857825    3.05801331223965   -2.63815976138342
C        -0.02926345992670    3.82722190612406   -3.31058308692776
O         0.21180942464563    5.22917852796206   -3.18873294379806
C         0.91183464834744    1.53885417002844   -2.80431210425971
C         1.85318691909623    0.52280266484590   -2.09618292903276
C         1.02001528687140   -0.75653584295581   -1.77460155433184
N        -0.04337304533242   -0.29211011141351   -0.87015919570441
N         2.57208991827526    1.19857799752351   -0.99797388055189
H         4.40622049839102   -1.41833950570361   -3.74408240126580
H         2.90747832845080   -2.07066864294815   -3.18615042556251
H         4.19933552518706   -1.48622614121710   -2.09005415405691
H         2.73099027942236    0.32047146636947   -4.10906243015339
H         5.07144963052519    3.31200372404257   -1.39054014018204
H         3.45948481801728    3.67035293722268   -0.58191079462607
H         5.42685341730009    4.12224218694395   -3.20989495126077
H         2.25152075649673    3.74954851033950   -4.29067487829164
H         1.05496816428579    3.25741530205230   -1.56111501600294
H        -0.96472629226405    3.46305708520908   -2.87363815944432
H        -0.02343247055248    3.68718114245521   -4.39882658837544
H         1.10142991060239    5.41722803820864   -2.83365544027418
H         0.78503391192777    1.21818995033304   -3.84698474443467
H        -0.08572082340758    1.32327413522831   -2.39831554479600
H         1.62628138095913   -1.51725542561229   -1.28349005985914
H         0.69010617012882   -1.26800335977139   -2.68742227113772
H         0.34051447342625   -0.01035144976696    0.02852816343037
H        -0.73618677391385   -1.02135542141640   -0.69350840501250
H         1.95524611743715    1.60603397283232   -0.29816187889976
