35
 energy: -49.722074592017 gnorm: 0.096598916814 xtb: 6.4.1 (79825abcba525fcdf90b791dcacef51065a7a4e7)
C         3.38554959865426   -1.55566383279709   -2.39560995744979
C         2.90158952751794   -0.26931589761743   -3.04873789899912
N         4.02902046713496    0.66308770206213   -3.34097928222124
C         4.06619176143939    1.47825354870532   -2.32660688013669
C         4.69145122929256    2.83687999790157   -2.30817562997399
C         3.86741951193109    3.93738120575968   -2.98728607727322
N         4.38424629250583    5.04446409961687   -3.41960813029552
N         2.49587635196169    3.85657975526678   -3.16149950955941
C         1.35021406626028    3.18623214413170   -2.51651967782953
C         0.05114172988928    3.96743693003215   -2.84326420764967
O        -1.07610424743172    3.66885324292772   -2.01948617555759
C         1.23242495330481    1.71348988620303   -2.96754909450905
C         1.99195687181225    0.63719788822523   -2.14010813295583
C         0.94077725418237    0.07656715112631   -1.13263049333535
N        -0.43737422635309    0.21810360525327   -1.62777483392521
N         3.07321272281353    1.29594518591872   -1.38083560409015
H         4.05931405261076   -1.32863145819155   -1.56087919310403
H         3.90402178633395   -2.09595451686224   -3.19461850288074
H         2.60525838190767   -2.20392110007325   -1.99156069879030
H         2.34498209424215   -0.54669884564465   -3.95425504529768
H         5.69976235685641    2.87607260941696   -2.72822294683653
H         4.75447765010215    3.16635564931018   -1.26921101166934
H         5.40323057366304    4.91106305043100   -3.41107778910849
H         2.20381402959208    4.52107548278911   -3.88195119391641
H         1.30977921093750    3.28787357902610   -1.42354487099059
H        -0.29371839371180    3.77389571241790   -3.86416620504531
H         0.31818665175438    5.02085632582928   -2.69189075774650
H        -1.30894226310510    2.72742253895801   -2.13067047570785
H         1.57696888663049    1.67845522904664   -4.00972579591988
H         0.17198023947039    1.44008752541161   -3.05200646543930
H         1.01166076492802    0.67677551312112   -0.22589523631679
H         1.19597856801006   -0.89815276742906   -0.69849447277968
H        -1.12726965388522   -0.02937130716382   -0.92265285348291
H        -0.64222363621409   -0.40072678473287   -2.41395595527738
H         2.81105730968481    2.10721067293773   -0.82461950367858
