35
 energy: -49.713523796536 gnorm: 0.110237519243 xtb: 6.4.1 (79825abcba525fcdf90b791dcacef51065a7a4e7)
C         3.70104174916095   -1.30332547861395   -2.52316953527652
C         3.12113972069299   -0.01797334344497   -3.09506811545255
N         4.10824858388793    1.09248335129442   -2.95948036777472
C         3.70841149653112    1.75951655171544   -1.91543752615087
C         4.11708852994834    3.16522487587474   -1.60864417437871
C         3.64898195571314    3.84420380807988   -2.90138779097321
N         4.50818612588248    4.36854878182950   -3.71776721707149
N         2.38265699480581    3.65346258672994   -3.42869104746429
C         1.19737302831045    2.98414856895898   -2.85857910899534
C        -0.02603334120702    3.90513228381701   -3.10291015086319
O        -0.12721918032422    4.91496283576893   -2.09869422162844
C         1.04230146250722    1.47589952210571   -3.15422945649824
C         1.87409005959978    0.49173117000318   -2.28274103127594
C         0.99079194866701   -0.62566010901841   -1.64593827672714
N        -0.22334007749366    0.08406692866524   -1.21388163489501
N         2.65628562346182    1.17495957782167   -1.23349082234991
H         4.36047529985577   -1.03246963813055   -1.69006558506943
H         4.15333649742704   -1.82747632649338   -3.37160187550940
H         2.93582126998707   -2.01455270599306   -2.20545721490470
H         2.98972250877577   -0.10409692386238   -4.18227861529895
H         5.19394456379332    3.33933643219879   -1.53984446477687
H         3.63030021654530    3.62945455919478   -0.74870118225405
H         5.48206490058162    4.20733213581935   -3.43181810834492
H         2.31033706382851    4.13604879927950   -4.32746018550077
H         1.32972184794254    3.14581547472681   -1.78019722401115
H        -0.93072370647031    3.28915750148310   -3.07574402694038
H        -0.08171928763355    4.32777251594788   -4.11394606876884
H         0.00783159085680    4.43012278343614   -1.26229797958511
H         1.25447960732888    1.12614791368507   -4.17340777522761
H        -0.01677916903036    1.33022164531276   -2.90213611913060
H         1.44117522891364   -1.22970424560708   -0.85870963225959
H         0.75649551859179   -1.37163826584926   -2.41555018254977
H        -0.01726154115475    0.59366698383218   -0.35817376345423
H        -1.00510484377614   -0.53416169591960   -0.99109854691124
H         2.11784799412758    1.71551302415912   -0.55959143548285
