35
 energy: -49.727975480205 gnorm: 0.099648981455 xtb: 6.4.1 (79825abcba525fcdf90b791dcacef51065a7a4e7)
C         3.59001300997389   -1.34277145635832   -2.86742119199854
C         3.10057511733846    0.08792856106342   -3.03781030989244
N         4.20149963275373    1.02857729642714   -2.67860679608627
C         3.77909848629768    1.74989546847354   -1.68055580223238
C         4.17359182586085    3.17923526446587   -1.48429656007767
C         3.66466327544870    3.79841196346632   -2.79155863165053
N         4.47361629878236    4.36679703263220   -3.62951938370593
N         2.36011799639833    3.64999607022293   -3.23217655374716
C         1.15286967835263    3.03444042203160   -2.64775402667524
C        -0.04727847472446    3.71954169635399   -3.35125419717913
O        -0.11375158112315    5.06963366980658   -2.89160329522049
C         0.97299390803512    1.52432636250977   -2.91881078272417
C         1.86939270507477    0.50896366965281   -2.15365754357370
C         0.99988200802085   -0.67987078945430   -1.63895343462670
N        -0.16065943125482   -0.15281277079394   -0.90420491885586
N         2.62831146154038    1.23186117011377   -1.11393717192609
H         4.33411586852033   -1.50352625974930   -3.65656409012994
H         2.81519305075044   -2.11645065428766   -2.88213875132734
H         4.11301389703088   -1.30037563615053   -1.90980940416073
H         2.83904696230426    0.23710318757673   -4.09424978800999
H         5.26151465463134    3.28382328249660   -1.49664179301321
H         3.67636570179227    3.54048950945218   -0.58194654628577
H         5.43754844102009    4.41287602014790   -3.27609454544188
H         2.19888109541775    4.04827807017456   -4.16022811284425
H         1.08574814257324    3.23508309718388   -1.56988710845663
H        -0.97198212648887    3.26010266825230   -2.98729468092513
H         0.06205113147139    3.81452853468480   -4.43888642731176
H         0.74111054102675    5.47436238707971   -3.13300064157106
H         1.16095346316944    1.44883013595763   -3.99818177512925
H        -0.04901587309134    1.21048457823358   -2.66696913852784
H         1.59465423303765   -1.45504673970183   -1.15646861709636
H         0.70499481300532   -1.19382029979770   -2.56230502092193
H        -0.13125821995632   -0.34713728396904    0.09367788405900
H        -1.01784879314086   -0.63630438308956   -1.17707364731151
H         2.01204269563337    1.68190518887379   -0.44019637176442
