35
 energy: -49.718245174732 gnorm: 0.118005988569 xtb: 6.4.1 (79825abcba525fcdf90b791dcacef51065a7a4e7)
C         3.78936312324120   -1.33728035625104   -2.25648861982460
C         3.00798432468835   -0.22563600267177   -2.94145466078337
N         3.90531386512168    0.95813972962365   -3.08058317197129
C         3.64329604075313    1.74604954259193   -2.07790015957164
C         4.25930942252484    3.10880834034249   -2.05400640921401
C         3.80227994642153    3.81694137513538   -3.33501922787559
N         4.52905876382705    4.32391795038716   -4.28075285909432
N         2.44790897021854    3.74195557034525   -3.61442256550533
C         1.35333370912087    3.05597163552335   -2.90081342213300
C         0.01467259312867    3.83710556219091   -2.95029108893594
O        -0.63352320540992    3.96372375249042   -1.68448857736237
C         1.12068821807801    1.55440842851406   -3.17912181919937
C         1.80120107877029    0.50905111625539   -2.24956166924970
C         0.82821947264537   -0.39177785544853   -1.42730223696614
N         0.23257097619000    0.53056543820438   -0.44802305396237
N         2.64866258888481    1.22090448414228   -1.27250959201024
H         3.68858139355139   -1.41052533294166   -1.16710535219158
H         4.81998320350782   -1.03483676837254   -2.46977766401915
H         3.58215084017379   -2.34742230470981   -2.61568770986704
H         2.69060497317074   -0.54695854389060   -3.94282203254862
H         5.33962677065588    3.05652255074581   -1.89637471512004
H         3.83825632377884    3.58477363351705   -1.16623091360666
H         5.52644215556423    4.32066824897802   -4.03293564301072
H         2.15519816133651    4.07852023521532   -4.53472153783213
H         1.55969986088989    3.16500474047135   -1.82746133998971
H        -0.63819516536339    3.30925174694430   -3.65297283448191
H         0.25700842128372    4.82651472416524   -3.35804369609034
H        -1.31025470721944    4.65616728366012   -1.80868073586624
H         1.42065259991361    1.43430789928305   -4.22872529522018
H         0.03647909110306    1.38061385621399   -3.15245907604783
H         1.39138658195871   -1.20193745141410   -0.96477914233492
H         0.10165686731985   -0.86873874584720   -2.09685119886782
H        -0.18009565743239    1.27297764744965   -1.00742175327440
H        -0.41863347842084    0.09686075924658    0.20835191439276
H         2.17968794755382    1.79778248170889   -0.57714777481838
