35
 energy: -49.722367496811 gnorm: 0.116734850940 xtb: 6.4.1 (79825abcba525fcdf90b791dcacef51065a7a4e7)
C         3.50990503172140   -1.34806878653323   -2.68519735201240
C         2.92910761529701   -0.00813712182619   -3.11268061072730
N         4.04327445918523    0.98290680883023   -3.06424328610968
C         3.88450750264521    1.70099567319458   -1.99001339218187
C         4.43928289952312    3.07891137769911   -1.81472070047335
C         3.91212196791109    3.62656111502657   -3.14645015083889
N         4.59179543354202    4.12947734881450   -4.12867418924925
N         2.54541054037704    3.69181385187268   -3.36058049917740
C         1.38752001485706    3.17467105579080   -2.60575612663542
C         0.17718667463706    4.11750622907292   -2.83111551985613
O        -0.96025865107072    3.73563235555815   -2.05727029951960
C         1.09591160406508    1.70904537581841   -2.99713501628572
C         1.85224594247135    0.63534886197109   -2.16341692773613
C         0.84077822728420   -0.33349273389867   -1.47597560911032
N        -0.13722823498288    0.49497330290921   -0.75372263797052
N         2.80123340204175    1.28434771664564   -1.23725267360238
H         3.79920225492285   -1.37366364711469   -1.62787540547721
H         4.31005788999386   -1.48253573066166   -3.42059937084240
H         2.75807554258703   -2.10183667403856   -2.92796073154596
H         2.54256419470352   -0.06843082298939   -4.13916162480941
H         5.52562590451999    3.19661639772355   -1.78880653011470
H         3.91612127134088    3.56223139418027   -0.98726817610771
H         5.59746827006449    4.03848981075304   -3.93751722983639
H         2.23878848044313    3.79742489466707   -4.33049535027292
H         1.60515754023843    3.26661530304442   -1.53303060587879
H        -0.04940073973854    4.27638411215484   -3.89038108854515
H         0.46203099176346    5.13397991474901   -2.53184258463296
H        -1.14137116017282    2.85007843111676   -2.42586190018018
H         1.34732493469021    1.52173053651030   -4.04964377880246
H         0.01034071635591    1.57590690962428   -2.89596750020041
H         1.30201776155092   -1.19000104169879   -0.98496139565152
H         0.32051358796568   -0.69391045561532   -2.37213658068312
H         0.09041275338323    0.80298873985598    0.18845707096382
H        -1.10792231023963    0.18152695258549   -0.80371742515361
H         2.31083495279148    1.81955741062615   -0.52359068989763
