35
 energy: -49.723413623580 gnorm: 0.112080106321 xtb: 6.4.1 (79825abcba525fcdf90b791dcacef51065a7a4e7)
C         3.51463609446601   -1.49579981777570   -2.74040826449732
C         2.99323151597631   -0.13554590187988   -3.18010250195266
N         4.12206829518686    0.83846390584855   -3.12611690634993
C         3.74826444393130    1.62813526732651   -2.16096496810643
C         4.38659675113772    2.93014617649649   -1.79428469167177
C         3.59959325056562    3.98071368904390   -2.58691043273825
N         4.15669015656310    4.97088374731656   -3.21048969046929
N         2.27456854339849    3.77764094311551   -2.93487708834639
C         1.11327962007144    2.95014584838616   -2.55465761790293
C        -0.10486837760288    3.68261457850349   -3.17452603424689
O        -0.12977106397892    5.09759202048261   -2.98567516241434
C         1.09385497461715    1.50144906330318   -3.09054178983515
C         1.88010132189614    0.46120524071296   -2.24221332327246
C         1.10487902821941   -0.66544796600051   -1.49122761543934
N        -0.00735439556485   -0.06272751781821   -0.74011719808955
N         2.75591521220141    1.18927773185481   -1.30284254656718
H         4.44258188731097   -1.63923077690322   -3.30664307015210
H         2.78460259426955   -2.30053689615388   -2.87675858073823
H         3.78068706505478   -1.34544751949321   -1.69209593348005
H         2.55594224226511   -0.19293055940410   -4.18618377701872
H         5.43466064779709    2.92236493959293   -2.10439541915612
H         4.32156819173681    3.02266034202526   -0.70838119080499
H         5.15837568103857    5.13924676579679   -3.05403662655101
H         2.08995051345377    4.37939383863941   -3.74092623680406
H         0.95492741735568    2.99833452745555   -1.46876521679582
H        -1.02602721620360    3.40038662814727   -2.65448625246783
H        -0.14649268978292    3.48516794107817   -4.25304426416308
H         0.74560494143198    5.52940610474239   -2.99666174381197
H         1.44667326675907    1.46648349791898   -4.12994877072656
H         0.03609585837193    1.20692735061780   -3.06177556330308
H         1.72140304840338   -1.05446615206971   -0.68128542486551
H         0.81289204218751   -1.47821250040835   -2.16786497975774
H        -0.35285780105884   -0.72864830050431   -0.05340514185614
H        -0.63279006483058    0.44648078215949   -1.36664111429010
H         2.28573870726263    1.89253662039883   -0.73661424399788
