35
 energy: -49.723893172999 gnorm: 0.104579271029 xtb: 6.4.1 (79825abcba525fcdf90b791dcacef51065a7a4e7)
C         3.43149622052993   -1.61125405158399   -2.58207816157582
C         2.95973301999533   -0.23312552381073   -3.02217553805700
N         4.00310547036796    0.82888902277069   -3.11903135694377
C         3.82492349763403    1.65746184225019   -2.13082758199013
C         4.41460744219180    3.03076022641465   -2.07184162003582
C         3.61115300704106    3.89164823888770   -3.05401013214865
N         4.19969870299795    4.83956710957116   -3.71333447174276
N         2.26106656213294    3.65657354437384   -3.25405089988372
C         1.12043021910123    2.98691021643102   -2.59952302190056
C        -0.20241174010734    3.61597755592513   -3.10843881818677
O        -0.40138033993607    4.99874613752903   -2.81380598307406
C         1.11164283315316    1.52517070149168   -3.09903473760608
C         1.89642627973671    0.55413237992133   -2.17105237982719
C         0.95711247618108   -0.41107230552876   -1.38341916026231
N         0.29060230700595    0.27026746234674   -0.26268623035762
N         2.81275254278862    1.27782377058539   -1.26762893672691
H         3.78484098567923   -1.55250412064900   -1.54575118258621
H         4.31857187608769   -1.83022949433428   -3.18564143229732
H         2.64335094682229   -2.36458800747426   -2.64259797330979
H         2.51582410386532   -0.35513291581654   -4.01955886867061
H         5.47058930040793    2.95626973276738   -2.34390892457022
H         4.35690440368337    3.42662223125129   -1.05599830766809
H         5.18652471905843    4.97364733284338   -3.45957381065977
H         1.90295372979188    4.06883416543418   -4.11874852340471
H         1.14308225132914    3.15239347350139   -1.51386098141542
H        -0.98321772436733    3.07672576084988   -2.56238285109280
H        -0.25289907055724    3.47734785786605   -4.19570703346110
H         0.39312932647728    5.50462301206828   -3.07014606744191
H         1.59489045393019    1.48985733439742   -4.08457769963131
H         0.06617725691819    1.19499476952643   -3.16544609513250
H         1.38657864529227   -1.36201017191846   -1.06922280901584
H         0.24402139413636   -0.80799441547914   -2.11665491111470
H        -0.18023382470919   -0.46498407547220    0.25896025436386
H         1.02614310370698    0.61004632273213    0.35902523851836
H         2.66884306788969    1.89668442350514   -0.47229564712993
