35
 energy: -49.722401256955 gnorm: 0.107853975854 xtb: 6.4.1 (79825abcba525fcdf90b791dcacef51065a7a4e7)
C         3.53855654631772   -1.48638590265681   -2.93768543906288
C         2.98976503360590   -0.09066136118786   -3.19510589798082
N         4.09899804185197    0.87465685844604   -2.94282660593283
C         3.78591413301561    1.60337141255844   -1.91045944660143
C         4.27857440702924    2.98424699937054   -1.61444701487318
C         3.58676145339401    3.90497153628641   -2.62686161349483
N         3.93328004390959    5.09865045025519   -2.99387700033980
N         2.52864175195580    3.32385875900955   -3.30561079799668
C         1.20253112355056    2.93343303494562   -2.78898201261525
C         0.10344981980618    3.84270675890214   -3.39715417569864
O         0.12769281200625    5.15895156915223   -2.84456226365685
C         0.87102746667010    1.43439429004782   -2.96003660585241
C         1.82381493806052    0.41716342870532   -2.26910313299090
C         0.95452265132611   -0.67623824629841   -1.57404901915670
N        -0.03462399457912    0.02280871542571   -0.73892972949567
N         2.61613516068370    1.19437407923787   -1.29558930096670
H         4.44053757897828   -1.66006176336466   -3.53647136572982
H         2.76415243312246   -2.25960965268244   -2.89812065113549
H         3.95306561189628   -1.51743437637183   -1.92794988531891
H         2.66121031552649   -0.06080373411093   -4.24290106891241
H         5.34033383771475    3.09546472295470   -1.84889244221325
H         4.17530397580551    3.24583358277006   -0.55951495524132
H         4.82789799175134    5.48550975354598   -2.66799948037954
H         2.44337299695076    3.73273216464136   -4.23912961022198
H         1.15408639499795    3.05198043967045   -1.69803769645481
H        -0.83992850029560    3.28944797806094   -3.34646245589113
H         0.28009796738676    3.85236816074469   -4.48003062873795
H         1.00036572851936    5.57722556079127   -2.97245325988545
H         0.92791917696530    1.08605114781988   -3.99998400362867
H        -0.12382652975686    1.39679502913450   -2.49605741447902
H         1.62540696050564   -1.21977932494977   -0.90927785977971
H         0.38068093743218   -1.27282825377549   -2.29409536868598
H         0.27448123354741    0.37719258927164    0.16288098378393
H        -0.90772502003987   -0.48412373211087   -0.58495188776627
H         2.14912767682420    1.79778970784145   -0.62175916346246
