35
 energy: -49.722081819947 gnorm: 0.123487301386 xtb: 6.4.1 (79825abcba525fcdf90b791dcacef51065a7a4e7)
C         3.82910951494500   -1.41056036490505   -2.55029844225426
C         3.17392225239347   -0.10414172259069   -2.97395442936949
N         4.16563400280152    0.98177169659969   -2.72259443665361
C         3.70793161851794    1.66438683213818   -1.71295413956903
C         4.02228028100889    3.12160970986139   -1.59112910779335
C         3.60006387789419    3.76915923673056   -2.91541574896754
N         4.41732603127292    4.24380471140885   -3.80222974212687
N         2.27001582779699    3.79181966713330   -3.30073190217229
C         1.18613965695642    2.99754740695865   -2.69060814255156
C        -0.09784877155275    3.79027651148079   -3.04780013678392
O         0.14894087917381    5.08655939305345   -2.50264738064004
C         1.08943632083242    1.52249501964180   -3.13909496482019
C         1.86352964569488    0.45824478085304   -2.30957546161773
C         0.89196326797883   -0.63625320598168   -1.76880797949352
N        -0.27744622791652    0.04850747289611   -1.19601986929604
N         2.53825890504077    1.14338491627098   -1.18936103594580
H         4.74401828131866   -1.60840708590668   -3.12132934992701
H         3.13541428766943   -2.24333314911407   -2.70656262804311
H         4.08368076419942   -1.47831315642904   -1.49060476263453
H         3.15591846483583   -0.03310173332917   -4.07001263512195
H         5.08022783456829    3.25657850580978   -1.35196905528628
H         3.46520770157632    3.60285281485460   -0.78487281001486
H         5.31335596534318    4.40910987423756   -3.32683292894790
H         2.13548910925243    3.91713184801339   -4.30676620438139
H         1.20405595052761    3.28026009867971   -1.62932947046029
H        -1.01956365114982    3.47063697390935   -2.55090996823834
H        -0.35973478170372    3.92770005950176   -4.10442202326029
H         1.00147124651534    5.48740028128705   -2.75835388474049
H         1.36202588582203    1.55799382346711   -4.20234703367691
H         0.04519627530743    1.19493894275351   -3.04585005681008
H         1.41191944168005   -1.23505015907852   -1.02145856936018
H         0.50437636218442   -1.15792492137542   -2.65272863208083
H        -0.04470181991488    0.48324286718507   -0.30650780290867
H        -1.01461094177094   -0.61060047958019   -0.94075534653054
H         1.94293839610362    1.73230772502842   -0.61055459062408
