35
 energy: -49.721055783628 gnorm: 0.102257267336 xtb: 6.4.1 (79825abcba525fcdf90b791dcacef51065a7a4e7)
C         3.56485958489682   -1.53711968451724   -2.68609347614852
C         3.11483429500355   -0.17782444216434   -3.20114505952344
N         4.13140914308602    0.90971798343278   -3.10261051027723
C         3.76482616079316    1.64477566849995   -2.09259291943363
C         4.28798415994138    3.00976424909717   -1.77594357070584
C         3.58390381250844    3.97701113268141   -2.73512369497910
N         4.20068869728769    4.93511487084568   -3.35258498018270
N         2.27435231639882    3.74761103436669   -3.12301582834485
C         1.14567838258741    2.93578957639682   -2.62809356698499
C        -0.14170297410994    3.76991828804913   -2.85505249175032
O        -0.04071019904368    4.95533242005852   -2.06572381903048
C         1.26728280083585    1.53881377673578   -3.27612328556730
C         1.92651204994731    0.44912985571740   -2.38283864284191
C         1.00688568712081   -0.59984221969677   -1.68409584055571
N        -0.22506505558995   -0.00546880084538   -1.14232136861624
N         2.67847972371564    1.20197174151018   -1.35944689218421
H         3.82801087903779   -1.51534298123064   -1.62187787101667
H         4.50888032692553   -1.92579384686391   -3.08219865632771
H         2.79619844438628   -2.29554231935832   -2.84827493632139
H         2.81301238173550   -0.32040537891303   -4.24770544300022
H         5.35900505507249    3.18448989670134   -1.90652811699719
H         4.07529399723537    3.32219546564295   -0.75167620819450
H         5.19241510730437    4.87258399968204   -3.09035190058533
H         2.09785334496588    4.42352505626373   -3.86993881358527
H         1.23521101035535    2.91041269180534   -1.53360747493395
H        -1.10701195793499    3.33582036888673   -2.57511473378800
H        -0.14076605061530    4.04329500310642   -3.91768301159370
H         0.14154440671650    5.78005315513724   -2.55509711969323
H         1.84094011921785    1.68499445247191   -4.20111988205954
H         0.28943020362473    1.12087495070554   -3.55099836706417
H         1.61476272149192   -1.05398483832651   -0.90199395704471
H         0.79231990429112   -1.40157937455770   -2.40163313538437
H        -0.25545440909423    0.29635271990733   -0.17156043397088
H        -0.93792966562124   -0.73346767023849   -1.21186832992398
H         2.28743028349444    1.81908963743451   -0.65057502588838
