35
 energy: -49.718480696599 gnorm: 0.127521066908 xtb: 6.4.1 (79825abcba525fcdf90b791dcacef51065a7a4e7)
C         3.71321351438507   -1.28504195439500   -2.52288684106164
C         3.08751311993670   -0.01713692643478   -3.08538153144649
N         4.12067606483783    1.03094413942221   -2.84046848542970
C         3.67025320558044    1.65450049118684   -1.79017084269150
C         4.12391095723265    3.06507483392196   -1.58613753384527
C         3.69992093092770    3.71651244635223   -2.90794828310600
N         4.50575781060062    4.25445115723524   -3.76870008509825
N         2.39131174357831    3.64861710151545   -3.35621386308561
C         1.23825583664098    3.04390472761499   -2.66145350128507
C         0.03792845285391    3.91546487680316   -3.11337040466945
O        -0.26000252788834    5.12216453733672   -2.41083285879280
C         0.95550236472309    1.58869514735893   -3.09583473750095
C         1.81348819880998    0.53154266231815   -2.34334516130743
C         0.92012102950012   -0.66203967619953   -1.88339644667710
N        -0.09803315301941   -0.22928504440509   -0.91355756757486
N         2.52978771067738    1.13655188283092   -1.20297865796217
H         4.69280688689005   -1.41141537702789   -2.99902154923290
H         3.24259004332713   -2.23268176917671   -2.80508251947134
H         3.81588902557801   -1.39242932267803   -1.44109511058988
H         2.98518604186961   -0.09311578193654   -4.17646850347202
H         5.21143079593516    3.15510536571668   -1.52399070569784
H         3.66242781132624    3.55885713667518   -0.72870746189825
H         5.49931603431081    4.20203133782698   -3.51122818283952
H         2.23949420647394    4.19887631158634   -4.20478431426579
H         1.32258760482903    3.10649458592357   -1.56805031649337
H        -0.89741501154393    3.38040608671345   -2.91979281358820
H         0.09629501906376    4.27122209576281   -4.14968573470070
H         0.31410812295506    5.86988232211598   -2.66417518117244
H         1.11049177986646    1.38070192054894   -4.16297450987604
H        -0.12447621202153    1.48545607634926   -2.92433307436752
H         1.52968728430737   -1.37542959479839   -1.32936832888097
H         0.29938375781442   -1.03440500414515   -2.70784171215824
H         0.30874471176919    0.26834637375998   -0.12533724619329
H        -0.67251462599847   -0.97322592994783   -0.51416042520980
H         1.99008836057476    1.59782629655890   -0.47345553153267
