35
 energy: -49.716668187661 gnorm: 0.117688925357 xtb: 6.4.1 (79825abcba525fcdf90b791dcacef51065a7a4e7)
C         3.66405701081106   -1.53186822623270   -2.54952695593965
C         3.00179342270737   -0.28180804462901   -3.11009890143654
N         4.06293919400920    0.76554791049885   -3.16392411032491
C         3.79219829395572    1.55520718976879   -2.16494162837131
C         4.43005105864546    2.88490637216986   -1.91554462970883
C         3.54407768386931    3.85430595396427   -2.70714921852037
N         3.78415846293717    5.12110965739734   -2.83835293375291
N         2.43277106245345    3.45072160992670   -3.42834762192828
C         1.21718514512389    2.97724510534126   -2.73836365277116
C         0.05858427985850    3.85800446090707   -3.27365687121173
O         0.04304805230616    5.11911156093575   -2.60446820745496
C         0.96559086751164    1.47020886111550   -2.96598970259833
C         1.89457447913652    0.44218712831677   -2.25880342553102
C         0.94124810142544   -0.59381696898583   -1.58637433811775
N        -0.24167906256519    0.01810799184234   -0.96128784062601
N         2.76274221246135    1.18041831107726   -1.32026389978432
H         4.59039927668408   -1.75658986444669   -3.09143826560712
H         2.99992417159602   -2.40211905524330   -2.52245040441161
H         3.98662803930168   -1.35677178807154   -1.52111223770508
H         2.73425112454544   -0.37523416961312   -4.17142217384072
H         5.47699673245310    2.97429948143082   -2.21651101068504
H         4.52520775311446    3.27111433026544   -0.89880345858130
H         4.67751339370450    5.44767926087970   -2.44916554223232
H         2.31685934594437    4.14187759997440   -4.17317879790349
H         1.19032659033963    3.11475474205378   -1.64890066202701
H        -0.86818001863984    3.31101687955429   -3.07231110680242
H         0.17455667291769    4.13312572945410   -4.32948735969967
H         0.78800259564733    5.62282297386580   -2.98418494719579
H         0.83168534262890    1.27591545101970   -4.03855185868381
H        -0.04314258543837    1.39320072782585   -2.53826146253873
H         1.58955005956297   -1.07333993522291   -0.85343118978361
H         0.72217540093497   -1.28114539310781   -2.41297430080873
H        -0.08770236784675    0.39278702178874   -0.02838734427459
H        -1.10821940051026   -0.51620592781044   -0.87997635935790
H         2.43978103719486    1.97834594566888   -0.77688461018619
