35
 energy: -49.720720305881 gnorm: 0.111570150471 xtb: 6.4.1 (79825abcba525fcdf90b791dcacef51065a7a4e7)
C         3.16484773271785   -1.44683321161859   -2.50343401074235
C         2.79120262605147   -0.05098376549107   -2.98038065103194
N         3.95334766868269    0.87893297251815   -3.08312183549343
C         3.84989915464151    1.76464330446514   -2.13462617693536
C         4.36589453007456    3.16636365684355   -2.21262445939417
C         3.55353211822845    3.80206660419014   -3.34720422420048
N         4.02482412948247    4.68162121832503   -4.17419413561036
N         2.23268188857328    3.43372089252958   -3.54133288376431
C         1.28164338397492    3.09084250511550   -2.46622026805809
C         0.00176515127671    3.96151397786398   -2.55827850818343
O         0.27412298339724    5.34997483459298   -2.74918061224631
C         0.86615292103549    1.60673515011291   -2.57140855970036
C         1.87580346231682    0.63282413361374   -1.89905834039587
C         1.06616717099994   -0.19104333988444   -0.85023613322624
N         0.14159291516363   -1.05318483885375   -1.60281600240556
N         2.94088250403337    1.35515831791303   -1.17559659239178
H         3.48031814290709   -1.43924297739267   -1.45333949720923
H         4.02171152688389   -1.79091328014577   -3.09210660714604
H         2.41759894539484   -2.23094521526999   -2.64176433019271
H         2.34312632991918   -0.14365703683608   -3.97905662939908
H         5.39981057918604    3.26583674582314   -2.55290351906259
H         4.10982493107000    3.72842738484489   -1.31235409941334
H         4.99983665143260    4.99944980073631   -4.10686562267800
H         1.86345489743389    3.61132876530298   -4.47836674307638
H         1.60424837569628    3.24651497527284   -1.42783114119113
H        -0.44705206892860    3.84768413894430   -1.56619309538169
H        -0.75732363417769    3.65209629302008   -3.28763729057621
H         1.21559226436260    5.36713437252454   -3.00649055080763
H         0.75424160803161    1.19395698636257   -3.58292240235315
H        -0.03676349301548    1.47867134204085   -1.95922681231800
H         0.58550019876542    0.55211764291357   -0.21453621916297
H         1.77383187313377   -0.73611265806358   -0.21321901074241
H         0.70822940154860   -1.61419794556622   -2.23415103775117
H        -0.25852473778639   -1.75445271933702   -0.97741668217738
H         2.69103925598242    1.98161220417066   -0.41310898419987
