35
 energy: -49.723219104308 gnorm: 0.114593971244 xtb: 6.4.1 (79825abcba525fcdf90b791dcacef51065a7a4e7)
C         3.76621242144965   -1.37702128935320   -2.67824018490851
C         3.13611917965429   -0.06138861424472   -3.11134247013616
N         4.04903757888185    1.10883042727108   -2.95952223930259
C         3.68568987479702    1.76859073071624   -1.89767327807457
C         4.12821476700678    3.15587831122659   -1.55597186637242
C         3.60575818190971    3.76767588867713   -2.86137029333101
N         4.37087855547954    4.37754624091350   -3.71124898137976
N         2.24288101365875    3.83408864183169   -3.09836190828891
C         1.16741367996380    2.94712209884978   -2.61404037305652
C        -0.10026999071692    3.74469679948082   -3.01589175816846
O        -0.21517274021629    4.94071255368406   -2.24466570246150
C         1.21967876288710    1.52308231903447   -3.21040485860911
C         1.89745699565860    0.46305771986281   -2.29557361417311
C         0.82865063348080   -0.52911138059358   -1.74100173633491
N        -0.23647159332343    0.21690238194938   -1.05290285378690
N         2.58624556183233    1.23953737716788   -1.24571333968927
H         3.93958268594700   -1.39522290112808   -1.59570190592252
H         4.69696565735633   -1.62506305342771   -3.19911998764604
H         3.08863799078094   -2.15109618541322   -3.04436667974376
H         2.89522331044112   -0.20206731273974   -4.17383627790749
H         5.21636407236608    3.15799700520465   -1.45304596502878
H         3.65108616873738    3.53944714758212   -0.65198223800122
H         5.35525747567092    4.39395265654200   -3.41641591381695
H         2.16333918286760    4.09641455949177   -4.08363538127665
H         1.33646370858482    2.86171373630479   -1.53205729303047
H        -1.00287069222250    3.13093937573184   -2.93079541311514
H         0.00500854176572    3.95218032298494   -4.08817266633393
H         0.64472505894582    5.40182906784019   -2.27320682985100
H         1.78253142925196    1.51386777872586   -4.15336942780733
H         0.19494055012221    1.18902482637698   -3.42192802973577
H         1.31798100011558   -1.28252661214870   -1.12426465363545
H         0.42974905460790   -0.98993020474545   -2.65325403087496
H         0.22721786769615    0.83328547637087   -0.38998468236740
H        -0.88203633638859   -0.49239326251386   -0.70198842536393
H         2.79332877399032    0.53831048460816   -0.53744016574848
