35
 energy: -49.719813999962 gnorm: 0.118859004339 xtb: 6.4.1 (79825abcba525fcdf90b791dcacef51065a7a4e7)
C         3.46560946972582   -1.43252282017483   -2.82797292934391
C         2.90758478401847   -0.05184389897206   -3.14073257883993
N         4.05417696747056    0.89708473467452   -3.03708508729816
C         3.74160354261594    1.67140891135240   -2.03831167282173
C         4.36563214888587    3.00211320394532   -1.76087823703916
C         3.60629128662067    3.92918416826026   -2.71757205685690
N         4.11886062455433    5.01886559094139   -3.19664602694160
N         2.42517155152791    3.48033887291406   -3.28458519745257
C         1.18785205556234    2.98769867713207   -2.64877621526243
C         0.05204144819151    3.80409965726943   -3.31814572837831
O         0.18724746396047    5.15139519533281   -2.86542061208675
C         0.86773188032251    1.50441840477495   -2.93804120706409
C         1.79670833289734    0.51284707854091   -2.18058446730127
C         1.12158392049807   -0.61436265912593   -1.33921548567873
N        -0.15556114143270   -0.29522772651455   -0.68228677123983
N         2.66683147703625    1.27467412015066   -1.26294499029666
H         4.42918151011177   -1.53861816993033   -3.34036963119014
H         2.67810089124933   -2.16044620093505   -3.04955783321279
H         3.68092548600067   -1.54100256419127   -1.76297582988165
H         2.67899381928938   -0.17047606830447   -4.20862161044248
H         5.43581440248512    3.06259621820218   -1.97469797007635
H         4.20719966936501    3.27935860933340   -0.71684369130323
H         5.09608421586786    5.14259085285705   -2.90351862312540
H         2.31747299517038    3.87365401597306   -4.22246035509548
H         1.15579300016448    3.08467192400595   -1.55509971837488
H        -0.87837998869812    3.47833577061687   -2.84188798207824
H         0.01869609934109    3.75767085050136   -4.41388829868772
H         1.05269908112692    5.53617859771317   -3.10164612450647
H         0.95907901081248    1.31465448234572   -4.01587030214213
H        -0.18690309795614    1.35842135076328   -2.66812495782413
H         1.86928732028381   -0.85768914596052   -0.58477847495728
H         1.16229396907819   -1.42426931449235   -2.07818409804494
H        -0.45757998893141   -0.93879824639781    0.04503580727479
H        -0.81921025610589   -0.41973525119595   -1.44848701488964
H         2.07108434367728    1.85294192038561   -0.67392446023573
