35
 energy: -49.720909986763 gnorm: 0.115779699410 xtb: 6.4.1 (79825abcba525fcdf90b791dcacef51065a7a4e7)
C         3.60211513526267   -1.43043073642364   -2.59113975537767
C         3.02037018994059   -0.15962957446087   -3.19290523036551
N         4.09879239503141    0.86218493518721   -3.05585538834650
C         3.81538663016308    1.57699434310224   -2.00535213439877
C         4.36947458808151    2.95007744932355   -1.79372929197070
C         3.61385460581390    3.95667589781507   -2.66958326537730
N         4.01999525282768    5.14852879441424   -2.97647289710134
N         2.50244683118083    3.45757464222710   -3.32812752137934
C         1.24252782410054    2.91240079981511   -2.78655891196509
C         0.07111567870995    3.71964029817717   -3.40364061186773
O        -0.12717339660107    4.91087213638205   -2.64200151348419
C         1.01103888497824    1.40967331837449   -3.05949578868306
C         1.87475075644751    0.38878284279982   -2.26467747623598
C         0.90445754339205   -0.61409774136782   -1.56678194199305
N        -0.10846723525720    0.18977536141890   -0.86515995799525
N         2.66173361330707    1.21875033930166   -1.33120606472167
H         4.46526355778590   -1.68901537933698   -3.21594890238729
H         2.85790523867570   -2.23363824135535   -2.57883454043037
H         3.84664476348555   -1.16146526253506   -1.56147451485230
H         2.56091776452309   -0.28701655915884   -4.18254680535452
H         5.37295670760637    2.99158442946459   -2.22496930983095
H         4.45021121856380    3.22264824516974   -0.73961319779860
H         4.94832459790475    5.33279073136546   -2.57591112807431
H         2.19986595266317    4.00218315265862   -4.13914662576483
H         1.12943897932792    2.99707898288793   -1.69724701477950
H        -0.81146332412729    3.11451210090328   -3.17233611534201
H         0.27797608178063    3.89181253373104   -4.46735336809257
H         0.60074952524558    5.50674081167174   -2.90264687362439
H         1.01211574955956    1.25972094533111   -4.14742195236878
H        -0.04394945600037    1.16854972394282   -2.87165571818634
H         1.38908772702468   -1.23019898704699   -0.80981681769164
H         0.38848112532275   -1.09135129650003   -2.40920588119061
H         0.20188628722861    0.60021538305089    0.01211777326215
H        -0.91683084468943   -0.38817520961661   -0.62954056460310
H         2.33253779444453    1.70098538047566   -0.49733980098418
