35
 energy: -49.718725506094 gnorm: 0.115838909346 xtb: 6.4.1 (79825abcba525fcdf90b791dcacef51065a7a4e7)
C         3.41834379531674   -1.42177634935852   -2.86188372281312
C         2.81140732345353   -0.06609010610341   -3.19237933614143
N         3.96073915813111    0.88080397792070   -3.10122058292151
C         3.78556184167855    1.63623502288210   -2.05553169424944
C         4.48917195555536    2.95256482447835   -1.95876610146674
C         3.78865925252823    3.82103146271950   -3.01060727828077
N         4.14393227272307    5.00463186538880   -3.40114021854734
N         2.69909530878557    3.19208833687823   -3.58965030443714
C         1.43933939031321    3.04449738119868   -2.83523733334951
C         0.32755105855955    4.02457835162188   -3.29130731077110
O        -0.40106588912491    4.43422755308820   -2.13383124899250
C         0.90420615335127    1.59539775459523   -2.83900969551906
C         1.80618408979150    0.53626709010283   -2.14285618516685
C         0.89227602199849   -0.46583308534224   -1.37158203518034
N        -0.07323702178327    0.25231070371205   -0.52508571140720
N         2.75808485157052    1.20647620230789   -1.23496764636719
H         3.64187054982143   -1.49051664766757   -1.79062827338255
H         4.31865798277495   -1.57625766851034   -3.46579759185566
H         2.75608870356393   -2.28832058884663   -2.91542744926456
H         2.43584879126549   -0.03031802420908   -4.22407238664875
H         5.55852840322142    2.98598873201391   -2.18243274052592
H         4.20291234829650    3.36995243576982   -0.99138973815327
H         5.02582455373143    5.37757145601720   -3.02780440976628
H         2.52997239795651    3.39850225402647   -4.57691741027093
H         1.62256323785023    3.29468269990017   -1.78148393625506
H        -0.26889929942233    3.54735874318491   -4.07561337832809
H         0.74363920867575    4.93334082063657   -3.74401113494115
H        -1.27207989269804    4.78673223897825   -2.39829733851875
H         0.88132339345276    1.21485533100340   -3.86892913760286
H        -0.09864179210318    1.48435765706560   -2.40496942314497
H         1.44883264647886   -1.15500050915719   -0.73696692881447
H         0.37308609827447   -0.96142295163872   -2.20134900028629
H         0.45522395064609    0.33485007230052    0.33996503539481
H        -0.83275758862155   -0.41683896519645   -0.38957808984906
H         2.42388803486350    1.76594080404463   -0.45294123276092
