35
 energy: -49.712417656604 gnorm: 0.124977019854 xtb: 6.4.1 (79825abcba525fcdf90b791dcacef51065a7a4e7)
C         3.59503887881801   -1.44695744600091   -2.54690575483687
C         3.02916929979931   -0.17614121342002   -3.16359220738973
N         4.04123135744809    0.91766226318636   -3.09143720858889
C         3.75443010526427    1.66003730697120   -2.06116892998149
C         4.25857523242969    3.04489744485709   -1.80591421662908
C         3.57794742056226    3.98077926525868   -2.81199232171153
N         3.96196450651428    5.17126329844126   -3.15099590917022
N         2.38108542186999    3.58687011081340   -3.38676773080494
C         1.31749508362936    2.86890048960103   -2.65793153905400
C        -0.02543085912160    3.56329426395906   -3.00289392307411
O         0.07899665646752    4.98701336966943   -3.02665863383197
C         1.04421167390369    1.40143693980091   -3.05559780453152
C         1.86690708412819    0.35738880949481   -2.24745952341753
C         0.89694038204641   -0.65243061893816   -1.55918204019032
N        -0.04615149556272    0.21001567135908   -0.83030201232734
N         2.73405810437645    1.10137231058236   -1.31252925504046
H         4.46883501403911   -1.61735601480274   -3.18700131799457
H         2.85722270555498   -2.25567982572470   -2.57406253184575
H         3.92759724637529   -1.30751057367922   -1.51622288869249
H         2.73501532538097   -0.40131556109188   -4.19775098113855
H         5.34211549502691    3.18044996227621   -1.85317018203849
H         3.89755518324107    3.42112644540287   -0.84670086521650
H         4.91043793661949    5.53025245565670   -2.98449519503951
H         2.20817745064485    4.18461801566940   -4.19837469655810
H         1.60091332184286    2.98310306453134   -1.60285250748695
H        -0.75053476376511    3.38188695635631   -2.20292935111739
H        -0.42538500653270    3.04009272073482   -3.88051351994827
H         1.00007104366086    5.22576243417597   -3.24457632127158
H         1.17608011816694    1.20159372625443   -4.12739238124910
H         0.01571728969093    1.08075707852270   -2.84161508035018
H         1.52256657988978   -1.30007845966239   -0.94551478407695
H         0.27572016123616   -1.05827664565488   -2.36730032123636
H         0.28037297809402    0.84400331030319   -0.10515514434956
H        -0.74177607534234   -0.41523450194599   -0.42022427253430
H         2.12502045148656    1.62567200048111   -0.68768011041129
