35
 energy: -49.718102723617 gnorm: 0.112176045034 xtb: 6.4.1 (79825abcba525fcdf90b791dcacef51065a7a4e7)
C         3.56578426656137   -1.55732477213304   -2.57436163558407
C         3.14793165259390   -0.19076847248628   -3.09724547632968
N         4.14861273058536    0.89510155116041   -2.88415941776507
C         3.70013876061897    1.66586510564591   -1.93567480551856
C         4.14847005723982    3.06465223797651   -1.65363129951365
C         3.58431578743042    3.95020100123124   -2.77115335097749
N         4.10458670549759    5.08065609478534   -3.13313989447381
N         2.40626894364517    3.52126315622473   -3.35956460559651
C         1.19501499267444    2.87396050672830   -2.81940709789037
C         0.02146550486142    3.72592613378116   -3.36855919774172
O         0.11071239153380    5.01040803110276   -2.75164168407289
C         1.00274632086676    1.39761804357111   -3.23137463402644
C         1.88721047390342    0.43185469213951   -2.39174613473169
C         0.87998926679760   -0.51672710656910   -1.67063963278353
N        -0.04545895144539    0.16130223097111   -0.74959468800141
N         2.59411059175231    1.13059186380868   -1.30013468736889
H         4.52489168738844   -1.70835503221183   -3.08385206926417
H         2.84177420546873   -2.31993704932634   -2.87993326978651
H         3.83558490202060   -1.55500094711117   -1.51627379396344
H         3.02318041641919   -0.32529291577539   -4.18032198430561
H         5.23688251143372    3.15301067650518   -1.60653299572185
H         3.78643029356224    3.21945735949377   -0.63533046852381
H         4.87792701663643    5.29979498202310   -2.49273339901567
H         2.18275401824184    4.19225387919184   -4.09829198057453
H         1.02415269036076    2.99491897479508   -1.74110518686871
H        -0.91128342820524    3.31337482267847   -2.97055361227426
H         0.04190247567549    3.89689035634478   -4.45219792846866
H         1.05581696740517    5.23453813199188   -2.84864839347500
H         1.13835002143506    1.33989916563881   -4.31965326359393
H        -0.02370994656864    1.12640465115430   -2.94985072395494
H         1.39061240350598   -1.32866326967060   -1.15346747532520
H         0.13770094289152   -0.89692030080998   -2.38348035398028
H         0.57692384988274    0.53387156181436   -0.03669337388108
H        -0.43518738663740   -0.66416604248389   -0.29165477265133
H         2.06531107841444    1.70567391382692   -0.64752056063006
