35
 energy: -49.719461487519 gnorm: 0.106345297084 xtb: 6.4.1 (79825abcba525fcdf90b791dcacef51065a7a4e7)
C         3.64636210566917   -1.43465888021166   -2.69727953407737
C         2.85794478851972   -0.20813181127343   -3.13261145759511
N         3.78595484179476    0.95049983228404   -3.28178263906946
C         3.71961723940680    1.64896434883932   -2.18516281573930
C         4.37499797538363    2.95298698772939   -1.85781596677606
C         3.81769445353367    3.91609910601430   -2.91287521693199
N         4.40107885340648    4.87757748164561   -3.55697674865678
N         2.62149113394611    3.50574125965574   -3.47742275569549
C         1.44944148767777    3.09305161791218   -2.68124822972889
C         0.22733953551537    3.96006267046738   -3.08048560769004
O        -0.42219756065876    4.39009143275242   -1.88398120647923
C         1.08598513755992    1.61856690358329   -2.96420728648420
C         1.80874096015355    0.48233732047925   -2.18538896002702
C         0.81522969798850   -0.48566915778337   -1.47110938854223
N        -0.37487793179278    0.16046510239516   -0.89608218584417
N         2.77048169345312    1.16908698143503   -1.30052368114219
H         4.52192516062988   -1.08879052221169   -2.13510332502804
H         4.12999863634374   -1.89130809817474   -3.56716991187492
H         3.04158873681017   -2.21303510435630   -2.22746331713223
H         2.49148463662489   -0.42083284696022   -4.14611016210331
H         5.46721707899173    2.91246027463055   -1.86687926573247
H         4.04271581245298    3.30971908932269   -0.88093072826503
H         5.34235928275999    5.13354793425511   -3.23345264840308
H         2.40991819696855    4.03772559049568   -4.32485131671292
H         1.62288033449370    3.28189697900655   -1.61315821549050
H        -0.44287463097108    3.46476033387247   -3.79049698561365
H         0.64143217452853    4.84693673613452   -3.57636967680696
H        -1.21883121981453    4.85024761550604   -2.21032207506719
H         1.35541225646703    1.49733071059584   -4.02193174033926
H        -0.00786668053812    1.51912864188018   -2.95919885007924
H         1.38872797402382   -1.08348284689960   -0.76318152401920
H         0.53001822363442   -1.23241489943772   -2.22257854890736
H        -0.18326441929936    0.54292609528457    0.02663357801830
H        -1.02833296395218   -0.60020397113118   -0.70275819742678
H         2.49973934335792    1.78055638596102   -0.53302305659738
