35
 energy: -49.724381247790 gnorm: 0.113362869172 xtb: 6.4.1 (79825abcba525fcdf90b791dcacef51065a7a4e7)
C         3.57393245854856   -1.43193236343567   -2.79195804793084
C         3.06555473737052   -0.07897987055142   -3.26793714499947
N         4.08185481574406    0.99815699595622   -3.08685060092947
C         3.68961977055173    1.62074838007293   -2.01290457090811
C         4.26386924112451    2.97031165007016   -1.71952514950336
C         3.65289883291677    3.91250589685741   -2.76370299209989
N         4.38863001186685    4.83307460856602   -3.30305231635599
N         2.39472510378013    3.66434575625643   -3.28660380160182
C         1.21707791216656    3.00392853681460   -2.69086631103663
C        -0.07179991846204    3.81268945523089   -2.98975012612860
O        -0.31695349952315    4.99211580945857   -2.22339567537469
C         1.04420566422781    1.53194352955719   -3.12635093874976
C         1.85190147632939    0.41871016665375   -2.39951488363266
C         0.93384750254273   -0.65042757220280   -1.72987470230091
N         0.30583901001149    0.01782832507224   -0.57942201846285
N         2.61394924618022    1.08696562452923   -1.32607424415264
H         3.52216357568609   -1.44042005198845   -1.69672947476753
H         4.64109132672764   -1.54469883075788   -3.01012714996838
H         3.07671904218252   -2.27448817108227   -3.27695928227410
H         2.90834190480058   -0.09640301578973   -4.35499509378170
H         5.33369312695492    2.93896620810266   -1.94124900087702
H         3.98403969068018    3.21946262027037   -0.69405295418837
H         5.31528161573821    4.95292401500369   -2.87509146398368
H         2.12052766582894    4.31429783777490   -4.02706558566803
H         1.29886755652535    2.97230950217154   -1.59593682609143
H        -0.92894670940472    3.18790081220456   -2.71851936659298
H        -0.11483175688732    4.02394464989050   -4.06559343740082
H         0.15805767086396    5.66675455962464   -2.74502217600893
H         1.17303239388431    1.60306624153887   -4.21465946247545
H        -0.00655525630709    1.22178298923995   -3.04807704447905
H         1.58262245945211   -1.43154070964199   -1.33440448971422
H         0.21408768463250   -1.13580261936026   -2.40072310280071
H        -0.28627259834644   -0.74291795378545   -0.25528395337953
H        -0.20769791295929    0.84462860701115   -0.88873773150804
H         2.11334869982812    1.48349578671236   -0.53334704690451
