35
 energy: -49.725343746951 gnorm: 0.110885190312 xtb: 6.4.1 (79825abcba525fcdf90b791dcacef51065a7a4e7)
C         3.39461120668514   -1.44223597113678   -2.68661774446045
C         2.99410818121398   -0.02451988551407   -3.06762020741919
N         4.11412461193474    0.95611554540923   -2.96862851307067
C         3.81379867209469    1.74669864408473   -1.97887544861994
C         4.31322540280083    3.14366814038858   -1.78860162475682
C         3.93255341513766    3.79470463790590   -3.12372803574973
N         4.63050966238757    4.35198968577118   -4.06284212627094
N         2.60000780367584    3.64414773988212   -3.46965386341418
C         1.45562328394302    3.17306404192230   -2.66568172087175
C         0.27585617317503    4.16799235010266   -2.81700607680315
O        -0.68500327398059    3.86810342620834   -1.80445399525676
C         1.02077655159540    1.72349283257320   -2.97539639363596
C         1.85864089429180    0.65473187551871   -2.21665726843210
C         0.92652205035946   -0.46520541243141   -1.65881186091765
N        -0.33204777924984    0.04514043444888   -1.09308129632771
N         2.75375658280990    1.27953578940836   -1.22270308481100
H         3.31873314022349   -1.63856514169159   -1.61052524981797
H         4.45356892880387   -1.60075382454881   -2.91601415780908
H         2.72686728077978   -2.05591026630941   -3.29478678411748
H         2.66601378982479   -0.06808269780385   -4.11507940859645
H         5.39618548829726    3.26834302645995   -1.70909836292671
H         3.81933532374811    3.57079321249608   -0.91360975603399
H         5.62298549130401    4.35946625760754   -3.79613367242737
H         2.33914900660459    4.07189158922009   -4.36122185602931
H         1.60307714173828    3.22623186855389   -1.57848788624169
H        -0.23372925973334    3.99397597206299   -3.77024716975254
H         0.52676533667929    5.22112410492762   -2.63846357154512
H        -1.55338952099861    4.05309561407621   -2.21010221503064
H         1.00866270114149    1.56427917828219   -4.06193883216159
H         0.00653078054502    1.61016011760644   -2.56933470339021
H         1.51319416572852   -1.12375863577762   -1.01883776625145
H         0.59121847338334   -1.06628031069702   -2.51318952300547
H        -0.14549568927384    0.70776280838122   -0.34439815589310
H        -0.78134955477973   -0.70019978407745   -0.55867418739115
H         2.26081166810627    1.90582282629374   -0.58943904092251
