35
 energy: -49.722987878996 gnorm: 0.105986916450 xtb: 6.4.1 (79825abcba525fcdf90b791dcacef51065a7a4e7)
C         3.48897413736877   -1.38797127424693   -2.25587467129004
C         2.98339337147442   -0.20444536940543   -3.06774841978412
N         4.09055112660168    0.79151361832172   -3.15802253230706
C         3.88709779783594    1.59500694631483   -2.15411335878064
C         4.46779003664590    2.97264107409539   -2.10855411297819
C         3.84680270956812    3.89807627219459   -3.16177137316535
N         4.51313972484085    4.79560311960898   -3.81758029592136
N         2.47957614564564    3.94251738891503   -3.37793412497331
C         1.41763116204063    3.22131445187640   -2.64989145294190
C         0.01759960695665    3.88742093215786   -2.67897073078694
O        -0.82256256950373    3.40460772426017   -1.63041702628484
C         1.31731210624574    1.76406279077726   -3.15250980437282
C         1.90953248482244    0.62597610614902   -2.27274539584448
C         0.77961144059705   -0.20577882278848   -1.59028020791694
N        -0.45534571272734    0.55273860419484   -1.33723057800523
N         2.85090659034780    1.23400741448770   -1.31166804634414
H         3.22759954615181   -1.25245977087245   -1.19965611388644
H         4.57887483419157   -1.43885592430818   -2.34898379205670
H         3.11744492360749   -2.33703865162574   -2.64777367219276
H         2.59915034334768   -0.50104412344979   -4.05319293852185
H         5.53986760782434    2.86830503748360   -2.29410950869333
H         4.30053842495511    3.45157462274156   -1.14179481095811
H         5.48237639469549    4.48201727507678   -3.68177981355351
H         2.23944632937881    4.55646614046312   -4.15979740406021
H         1.72595190786125    3.38034406936936   -1.60767852397577
H        -0.30701666319351    3.70531961420467   -3.70857792740809
H         0.05007433751818    4.97905321552067   -2.57312334936256
H        -0.61420794576142    2.45552104818952   -1.53719636106596
H         1.94722815098145    1.70639951998403   -4.05025750981484
H         0.31962076333387    1.40285832843898   -3.43635516153959
H         1.05936056351505   -0.55499053433133   -0.59668322331734
H         0.53496576944963   -1.04372163111516   -2.25487110058931
H        -0.87218648752575    0.42727361061323   -0.41804678788787
H        -1.17930903110299    0.29882486858971   -2.01132256974789
H         2.55594793461674    1.84672878379585   -0.55415541039239
