35
 energy: -49.716075605629 gnorm: 0.114810087083 xtb: 6.4.1 (79825abcba525fcdf90b791dcacef51065a7a4e7)
C         3.35014598302604   -1.51289357749368   -2.38134013702101
C         2.82736654382389   -0.28227816738459   -3.10781920249381
N         4.01031454234240    0.61772518916193   -3.23631048252179
C         3.87553223837774    1.52592397837673   -2.31336026409815
C         4.64658315089795    2.80609422574833   -2.25171975943001
C         3.83499444602212    3.87534750005975   -2.99289679337239
N         4.20046887827414    5.09668600391694   -3.22614669406435
N         2.56678381688929    3.64874892191195   -3.50113369083906
C         1.38726503510567    3.08368449821546   -2.81750759686560
C         0.13690075425634    3.88629761090800   -3.26139182457972
O        -1.05341173169966    3.60482403081640   -2.52493084929886
C         0.99437156209761    1.60355206372549   -3.02027411770478
C         1.84566504576773    0.57284070129666   -2.22473328675172
C         0.92417539218615   -0.23112795799380   -1.25582265754468
N         0.21493884748896    0.76107393182283   -0.43300984370581
N         2.86553116992480    1.25852911563210   -1.40664927311083
H         3.67142384409991   -1.23646649481591   -1.37008038331705
H         4.19311804912388   -2.00331080472086   -2.87936736694477
H         2.56968320278692   -2.27657607342055   -2.38515661584588
H         2.52690452723626   -0.38432981323049   -4.15949522823683
H         5.62385446176557    2.70088838786076   -2.72977797176062
H         4.88027330106740    3.16336423246083   -1.24687098976074
H         5.13454928344607    5.34681916218753   -2.87811685991727
H         2.23456360360541    4.47097015451910   -4.01053293299248
H         1.45441484090860    3.33579778124208   -1.75050727102779
H        -0.00009306615732    3.80552207065801   -4.34459799244452
H         0.25491494395654    4.96650928795248   -3.10929081070956
H        -1.76642930441792    3.17188478602432   -3.03191882815414
H         1.07334866457062    1.40544924522531   -4.09758006723370
H         0.01733734942867    1.65111107680014   -2.52070712382230
H         1.63783219451434   -0.87090271318535   -0.73733870875287
H         0.04621010737503   -0.72729758618792   -1.68787979616889
H         0.92083486576137    1.24334432982415    0.11791902343263
H        -0.30326461605947    0.19676113752559    0.24227626623765
H         2.61076527086522    1.95858826822418   -0.71291661252337
