35
 energy: -49.725887134603 gnorm: 0.117693182984 xtb: 6.4.1 (79825abcba525fcdf90b791dcacef51065a7a4e7)
C         3.56892879659982   -1.48465360413301   -2.56756143426775
C         3.00054893737374   -0.17437590288063   -3.09253868278635
N         4.04857297561417    0.88718300740442   -3.11744436679846
C         3.78890606117672    1.59084794323935   -2.05336863568984
C         4.35361679532929    2.95192152551457   -1.79697946223570
C         3.62568969326108    3.93883950459485   -2.71754300048128
N         4.00814472695377    5.14176319666828   -3.01139253498247
N         2.52999989512957    3.43426892074527   -3.39789750156097
C         1.27332455977902    2.92214252975031   -2.81789694359301
C         0.02626784286928    3.78809186126225   -3.13351240378074
O        -0.08995882903731    5.07436327271512   -2.52487198322746
C         0.99199446762415    1.45667434560733   -3.21730641628406
C         1.79014716282411    0.46801360640748   -2.31983558685246
C         0.97603684769004   -0.57304396250566   -1.49054668351190
N        -0.29785577545664    0.02395040410358   -1.06008497003180
N         2.67439073699265    1.15625848172798   -1.35859200165630
H         4.38670533240510   -1.72919558810498   -3.25583350021697
H         2.94893233088831   -2.38716973354487   -2.55303247459703
H         4.07546397669282   -1.50747503226199   -1.60047873276621
H         2.68712434335159   -0.33048849205671   -4.13374389876671
H         5.40015054289345    2.88730387228987   -2.10561972921539
H         4.25445143478748    3.29745356572617   -0.76608284633053
H         4.91473405309589    5.29301691143377   -2.55159292754142
H         2.36242168525699    3.93750403389042   -4.27229876320457
H         1.44600655673821    3.07132002604584   -1.74342642321899
H        -0.83689464262739    3.24087627300273   -2.74091437005078
H        -0.05573944361479    3.92292495100626   -4.21933659206265
H         0.83061390740656    5.39561006426691   -2.57192085807403
H         1.32473306551239    1.36226074866599   -4.25963136846041
H        -0.09265598680956    1.30088689309904   -3.14188410996717
H         1.58724775772040   -0.86780610432428   -0.63791554195756
H         0.64201828758304   -1.38829632071395   -2.14436309619922
H        -0.07589490196037    0.82563789530537   -0.47491228035734
H        -0.80230001329225   -0.67623659013405   -0.51394463101588
H         2.24511142194850    1.69956936467909   -0.61241103883799
