35
 energy: -49.720982524709 gnorm: 0.118656960171 xtb: 6.4.1 (79825abcba525fcdf90b791dcacef51065a7a4e7)
C         3.69106646942316   -1.42844095979480   -2.60224278041000
C         3.08031235683093   -0.11002558490350   -3.05417725357544
N         4.00875459639793    1.05727083562800   -3.01817603021879
C         3.74779099552122    1.74061641808759   -1.94125205343854
C         4.22475593033283    3.12187028170555   -1.62219534981873
C         3.69751292040438    3.84305632467385   -2.86848091494902
N         4.40295002193725    4.67481845866875   -3.56860594983005
N         2.38012018750691    3.67136672381275   -3.25964446238450
C         1.22613216576537    2.98477840800125   -2.64742300320256
C        -0.11955969191251    3.64869262209806   -3.03852808841824
O        -0.10233804365907    5.01693399284474   -2.63101743566935
C         1.09277702388608    1.49925580532366   -3.04955553280881
C         1.87062097478992    0.44257631121374   -2.21388875902824
C         0.92683896044224   -0.65620150464880   -1.63400997852203
N        -0.28904640288553   -0.02465482408175   -1.09803091665492
N         2.69256413787557    1.18653556158408   -1.23895746098794
H         4.68678285580888   -1.47133254498911   -3.05939360435774
H         3.08638238169222   -2.29962555844286   -2.87525675542584
H         3.62285715738873   -1.42690161761549   -1.51242958946090
H         2.78449423349576   -0.24048202391932   -4.10402828388305
H         5.31614145878482    3.13645594391503   -1.67991916118456
H         3.88478863811970    3.45494998762521   -0.63962008415813
H         5.34809234576791    4.86835250602728   -3.21441938181787
H         2.22191303776882    3.81717174830509   -4.25945294055074
H         1.28510377137513    3.08360255514411   -1.55503294912599
H        -1.00844304400953    3.24215061498821   -2.54533686928593
H        -0.07058323815824    3.58116683518629   -4.13258517676222
H         0.75574487566842    5.41157002961144   -2.87764136783713
H         1.50026347634548    1.57282537085094   -4.06671458479763
H         0.01621391095165    1.32756903208350   -2.91553910581728
H         1.45350684994162   -1.27196484713136   -0.90538126505111
H         0.54821198953850   -1.26635285431002   -2.46349033504149
H        -0.29574432633434    0.76577832057276   -0.45805660696408
H        -0.96820569315524   -0.74791798033098   -0.85589840928526
H         2.18304450930193    1.70812381100205   -0.52861322222332
