35
 energy: -49.730054189549 gnorm: 0.106152298727 xtb: 6.4.1 (79825abcba525fcdf90b791dcacef51065a7a4e7)
C         3.71593484664939   -1.40137413954189   -2.57245832634011
C         3.00070651325458   -0.19397326064350   -3.16077456277375
N         3.94757521834648    0.95896194125428   -3.15289532923677
C         3.74234688900384    1.63527106059184   -2.05959037346055
C         4.30536986794136    2.99459083061499   -1.79049963317850
C         3.52714217745097    3.86713086137758   -2.78264768931756
N         4.02434951653879    5.02327755229635   -3.09208995335993
N         2.36757478357164    3.45618462882930   -3.41867953539024
C         1.17287487426077    2.92878186608794   -2.73133287052301
C        -0.05620885135138    3.74425466981576   -3.20986095009679
O        -0.00749120436452    5.13932618313238   -2.91011437106169
C         0.99537282835501    1.42013858823569   -3.01197501723016
C         1.88907074383955    0.41569717787643   -2.22944503598246
C         1.00482550052244   -0.61564793201245   -1.46215488619580
N        -0.11804318277250    0.09267082464903   -0.82815769923557
N         2.74553803994296    1.11686949542190   -1.25252226975280
H         4.63367487118747   -1.50082064294660   -3.16418573387660
H         3.05692005437971   -2.27011518136536   -2.67310914515779
H         4.02888057433350   -1.32930673549936   -1.52880180995847
H         2.62817648330134   -0.42142033877561   -4.16884381507054
H         5.31473369230765    3.00893072371477   -2.20960127967634
H         4.24951938249809    3.38022128186063   -0.77062519314256
H         4.88856750527056    5.26397031821783   -2.59070005711874
H         2.28004118355277    3.98008003380499   -4.29262293850192
H         1.36853344257794    3.10777191001325   -1.66538719758876
H        -0.95078652774321    3.46584083453686   -2.64342992258871
H        -0.29978595360574    3.45222266043700   -4.23908727321383
H         0.75292698628630    5.55570409534660   -3.35873544536552
H         1.20595011454075    1.22835951040586   -4.07261077218049
H        -0.02428220809331    1.09437390543430   -2.76579247282910
H         1.59284678954102   -1.26566839082616   -0.81473869706250
H         0.51428292894611   -1.30678021693978   -2.15885055847135
H         0.11541062502270    0.94252096350680   -0.32056475443770
H        -0.55692655343314   -0.59497785718629   -0.21373458501937
H         2.39492588172840    1.55005359287182   -0.40065601022456
