35
 energy: -49.711856676548 gnorm: 0.124813058873 xtb: 6.4.1 (79825abcba525fcdf90b791dcacef51065a7a4e7)
C         3.46463819496824   -1.44762032773151   -2.54003112894312
C         2.90814559085600   -0.19206484821613   -3.19530272269609
N         3.94190667225996    0.88185956249175   -3.13280161645999
C         3.67459281388506    1.63032922857641   -2.10170275258977
C         4.31694904105048    2.97667879345429   -1.99272463060202
C         3.74441612020838    3.89437245696638   -3.07963151775368
N         4.36228235220541    4.96845336032659   -3.45941611886523
N         2.56539573412347    3.48693929624233   -3.68122857459856
C         1.48210611283189    3.13442251721585   -2.74308011736256
C         0.31987727050495    4.08477941937797   -3.13125238540664
O        -0.73939199021155    4.15328237947128   -2.17642154650221
C         1.05467842439979    1.65625654402638   -2.87947092761049
C         1.82814205959413    0.45958615498780   -2.25522286099531
C         0.78681490806273   -0.52002834665603   -1.63049112827633
N         0.24215097769156    0.08788548907390   -0.40644703499777
N         2.70538240875286    1.11088208595241   -1.26233821375783
H         3.42894195981761   -1.37543030639901   -1.44650835398484
H         4.38379145729301   -1.68563444780807   -3.08560297623354
H         2.84003796980995   -2.29837963511064   -2.82008617188374
H         2.45643568362776   -0.22740659564656   -4.19601423711303
H         5.39633996859377    2.93612278799536   -2.15986998011784
H         4.19742531649348    3.33797331518576   -0.96941903740778
H         5.32859215539352    5.07376902801464   -3.12572234079843
H         2.33540561015563    4.14996660746918   -4.42514048717013
H         1.78333970004954    3.37453434182198   -1.71440887547611
H        -0.02728186979556    3.63535955861112   -4.06727050366339
H         0.68420159040757    5.09235219623572   -3.36786222359047
H        -0.95507630882371    5.08479829950509   -1.97988751606856
H         0.93646732601674    1.48898313604797   -3.95841297981197
H         0.01146611164167    1.59882533775483   -2.54059838907039
H         1.28993295508791   -1.48544386771882   -1.58265329332562
H        -0.00225724972633   -0.64699632912362   -2.38210603522959
H         0.84165185480291   -0.01848432995328    0.40821896747271
H        -0.74013226197225   -0.18156312171852   -0.33220305903497
H         2.20678284697796    1.78729983971747   -0.68778535809444
