35
 energy: -49.719682456907 gnorm: 0.124626720116 xtb: 6.4.1 (79825abcba525fcdf90b791dcacef51065a7a4e7)
C         3.45855067839171   -1.56116307258897   -2.68692144223091
C         2.99776375008299   -0.17824744575351   -3.12361836550011
N         4.04863229590637    0.87226854412062   -2.98955330644141
C         3.69669970522821    1.66569872143738   -2.01927479138376
C         4.30630470791022    3.00298157888989   -1.74140577068776
C         3.60738846878590    3.93183918565095   -2.74143667159990
N         4.02349620248669    5.10820938984463   -3.09165417618250
N         2.40809628654901    3.61382524477968   -3.35672134821248
C         1.26117055493627    2.90241105720289   -2.75976389454207
C         0.02159226170663    3.69840090747770   -3.24399283131153
O         0.05354688109766    5.03474805622806   -2.74239422505101
C         1.10684649968972    1.44140443331328   -3.23716862695717
C         1.82515851289649    0.44636310776434   -2.28120194818710
C         0.88546538105435   -0.57807140634003   -1.57281838365962
N        -0.09145893132770    0.13673784324409   -0.73665536651681
N         2.67230400375293    1.11243646175899   -1.27211933123510
H         4.38781388105685   -1.66644700484144   -3.25933988809689
H         2.66864176947546   -2.26741208020471   -2.96332392573486
H         3.62916499704407   -1.65837324822892   -1.61277592284640
H         2.77116390505097   -0.23202238722578   -4.19715233251306
H         5.36292521806202    3.11811558482365   -1.99628688647297
H         4.09796145056113    3.30376539911188   -0.71276775752565
H         4.87710080037227    5.43065857654489   -2.61880824487561
H         2.16977377544498    4.33314674090591   -4.04351430271674
H         1.24681478684736    2.98899626659915   -1.66484070228555
H        -0.84657975833408    3.24992725430882   -2.75025572791406
H        -0.04017899033777    3.54318861107832   -4.32843406490205
H         0.96298411536631    5.38863544890084   -2.71883810525082
H         1.71046641339783    1.38267317802702   -4.15273613204153
H         0.04877967656602    1.16834833567542   -3.34834338678014
H         1.49610340576749   -1.34115326097162   -1.09087374372033
H         0.26745577539711   -1.15518172866597   -2.27188097081483
H         0.36943888999744    0.63500293522229    0.02077557643082
H        -0.38904241860744   -0.74508373616777   -0.31614393761711
H         2.22109133294102    1.66766962105573   -0.54798071616615
