35
 energy: -49.719879158470 gnorm: 0.093939733390 xtb: 6.4.1 (79825abcba525fcdf90b791dcacef51065a7a4e7)
C         3.25231685199174   -1.41988458810084   -2.37408462441634
C         2.58568314042401   -0.23529849317430   -3.05807273394374
N         3.70534597949930    0.66545228464307   -3.45917767807833
C         3.89193923632349    1.49568874805150   -2.47392705656318
C         4.71686029885051    2.73948986011856   -2.57200332682042
C         3.89213555452806    3.99213817493440   -2.89141448079554
N         4.37336588511797    5.19352872146175   -2.82269090711325
N         2.63735819675848    3.72520276398582   -3.41322779004792
C         1.45155226590605    3.22902942582014   -2.68825653892847
C         0.25141811558132    4.17007090981279   -2.96888225645999
O        -0.88591798427492    3.90221202454585   -2.14841642914000
C         1.08015618172430    1.76190499734870   -2.99790541272799
C         1.81036192241444    0.73175348121459   -2.08931356377411
C         0.94446560990219    0.12473897699668   -0.94211979519685
N        -0.20031241625883   -0.70288821591906   -1.35323835982856
N         2.97927329087806    1.36075197085468   -1.44312158214274
H         3.09670996820558   -1.46425460285176   -1.28960526486632
H         4.34433796837576   -1.37872451036949   -2.44435419416247
H         2.98829234886248   -2.38607386610750   -2.80896047795219
H         1.98507593193847   -0.57633151615095   -3.91228692377435
H         5.35932868092439    2.51353442369689   -3.42689844683616
H         5.38040429403750    2.97155248350650   -1.73664095002671
H         5.37995274912036    5.27302438898460   -2.63122057725599
H         2.32146641223156    4.53775237993305   -3.94790630917791
H         1.63993489338959    3.43743199507414   -1.62635246736186
H         0.06210472576207    4.06035112576260   -4.04161223540703
H         0.50245683719851    5.20212028799763   -2.69361334144369
H        -1.66323147837193    3.55084486519836   -2.62296053787194
H         1.27887260703744    1.58444002229889   -4.06331058672230
H         0.00648177344334    1.59434869591687   -2.83798971174664
H         0.54612202871987    1.02488502334815   -0.47467690402168
H         1.64091568786859   -0.44743864265699   -0.31661937570842
H        -0.62986705235032   -1.17664691416687   -0.56239574108249
H         0.19754659692706   -1.42283386954848   -1.95853295582480
H         2.78270520698291    2.03509373690236   -0.70631926605516
