35
 energy: -49.722528140229 gnorm: 0.110767403079 xtb: 6.4.1 (79825abcba525fcdf90b791dcacef51065a7a4e7)
C         3.51215678424700   -1.51974929447083   -2.36667983785610
C         2.87207883548930   -0.28689117891078   -2.98784447846271
N         3.99998631836210    0.64587704131278   -3.27706783252830
C         3.91019645590016    1.53185185323165   -2.32742852980088
C         4.68569936569007    2.81081322164105   -2.33024857904626
C         3.80631501230501    3.84411556534902   -3.04459553013191
N         4.18850576896060    4.94537915355115   -3.61098190145089
N         2.52863941510828    3.50475424803507   -3.45737728183805
C         1.32813985619017    3.06120022240381   -2.72255241852065
C         0.09625829559722    3.91200186187619   -3.12657742552808
O        -0.98343822995913    3.67201846013444   -2.22374336914295
C         1.05859596071311    1.55801089864345   -2.95501631192186
C         1.90270262407441    0.57328273594261   -2.09609486050334
C         0.87011699148200   -0.13438315667370   -1.16482023640001
N        -0.09063472460326    0.92607222962647   -0.82292480300341
N         2.94232818175150    1.32123080157222   -1.36171804678966
H         4.24777608935602   -1.19914685578607   -1.61944761705295
H         4.09486033441573   -1.92809219562602   -3.19905879556929
H         2.77024860940488   -2.15774487473200   -1.88203402845078
H         2.32418339548175   -0.42117008345329   -3.93044416634195
H         5.54422472536774    2.75636130587084   -3.00451583053745
H         4.88786573320718    3.07451811855703   -1.29026662412573
H         5.19310859484284    5.15612790682628   -3.56042815757406
H         2.16930597974394    4.22259543264060   -4.09100896851828
H         1.34280626736896    3.22028092963724   -1.63579665410039
H        -0.23789570838636    3.64521703115071   -4.13444375775467
H         0.39917009182536    4.95677552398577   -2.98300943723942
H        -1.18734265936405    2.72624191371360   -2.09414025555183
H         1.30992522754669    1.41270307562762   -4.01416193028846
H         0.01182830630881    1.26765392490571   -2.79255041843521
H         1.41404116781970   -0.47347199703548   -0.28356624174590
H         0.35483956728569   -0.93652584082646   -1.70771708570073
H        -0.89473865486869    0.66512862519239   -0.25748529240021
H         0.35842634006057    1.69902538401361   -0.32908002417649
H         2.75208363701328    2.03252462146157   -0.65878022836924
