35
 energy: -49.724151633157 gnorm: 0.110685704107 xtb: 6.4.1 (79825abcba525fcdf90b791dcacef51065a7a4e7)
C         3.53719228817591   -1.44441379787950   -2.64656788134910
C         2.98010559019113   -0.09288028509355   -3.06905578870759
N         4.03894994905584    0.95769938846968   -3.10088323796445
C         3.76786316260098    1.67010312914774   -2.04550591046070
C         4.33216754872142    3.03807955414588   -1.82789151395753
C         3.61385330330411    3.94509258049649   -2.83420867729406
N         4.05397123201754    5.10359393288741   -3.21343900843553
N         2.42615882236060    3.46343186232340   -3.35898923018795
C         1.16472188407478    2.94129612707954   -2.79858035387726
C        -0.00044422708925    3.74395793392464   -3.43320922199575
O        -0.02542525027891    5.04600432915822   -2.84797670637125
C         0.94109624933073    1.42406439357601   -2.98370463099656
C         1.84487512232262    0.47834980922510   -2.14182614636431
C         1.08214459147404   -0.65144007319371   -1.38280471643656
N        -0.14912202421851   -0.14809778567126   -0.75421022118876
N         2.71493458578806    1.26470560242410   -1.24505524362727
H         4.38385730061458   -1.89307149409894   -3.17961788731823
H         2.72227589884250   -2.17330187329591   -2.70801327294821
H         3.87487461359179   -1.43484082989965   -1.60819093908114
H         2.68918150654339   -0.13982512735492   -4.12729668173290
H         5.36459021547030    3.02411072255960   -2.18646572587807
H         4.24411491444698    3.45181318911004   -0.82139003768368
H         5.03924089608129    5.27672199605645   -2.97792270926841
H         2.20487118865524    4.09758457951120   -4.13021405241339
H         1.05616542143003    3.02927383124020   -1.70906885335301
H        -0.96555757221550    3.24000248716083   -3.31826256309175
H         0.19200830903710    3.92223371763334   -4.49861951779864
H         0.88177736474778    5.24818142666657   -2.54968976656813
H         0.95098533840444    1.16005996930968   -4.04966620717234
H        -0.05275243389113    1.36174064691525   -2.52023355617632
H         1.73163870285883   -1.05511323911736   -0.60650017645163
H         0.95440424637139   -1.47669010273829   -2.09437024619631
H        -0.00140192400035    0.31706715933978    0.13808843033552
H        -0.72363537424318   -0.96953238637211   -0.55882676505335
H         2.40753344808887    1.97833084617556   -0.58741017121211
