35
 energy: -49.720173006941 gnorm: 0.111313700312 xtb: 6.4.1 (79825abcba525fcdf90b791dcacef51065a7a4e7)
C         3.54657182138365   -1.48564489088908   -2.81319942222261
C         3.12113181630921   -0.04766464497781   -3.07145911832482
N         4.19364403950460    0.97984152642705   -2.93063792505964
C         3.81422857206627    1.73356207343705   -1.93928648522633
C         4.22598755119221    3.12071773571220   -1.56059309468380
C         3.63388935408680    3.79474978046998   -2.80414556739286
N         4.28604557007214    4.52931354568690   -3.64957633104573
N         2.30926702810414    3.62220170379142   -3.16967629603264
C         1.09829037761333    2.92240192946499   -2.69880177521377
C        -0.08621558383082    3.78725083940833   -3.20240264151801
O        -0.05360973122769    5.06081235973704   -2.55786879948433
C         1.02562800442488    1.42848906400708   -3.08508675715010
C         1.90637754628267    0.47982254136061   -2.22237951324622
C         1.02999966862062   -0.57608740047637   -1.47987524767942
N        -0.13164091229007    0.01830926736888   -0.80032705981247
N         2.71045845488281    1.25462310227441   -1.25661818589703
H         4.28022366702235   -1.65221994853102   -3.61087442352737
H         2.69640916313557   -2.17251803290765   -2.88080729715349
H         4.00682538338902   -1.36059511946977   -1.83091795125959
H         2.78022654611419    0.08507614976029   -4.10725731845764
H         5.30117301341396    3.31697460409513   -1.57184542619671
H         3.86102881795361    3.58151521242840   -0.64056873872777
H         5.28350747949588    4.55482140797187   -3.40337182284196
H         2.12926738183767    3.91506640140699   -4.13286682984199
H         1.08237748513549    2.84861790300161   -1.60296301186675
H        -1.05776751026070    3.32101004686264   -3.00918262910068
H         0.05945672758547    3.96641083465730   -4.27506316896261
H         0.80933737495513    5.50997170310510   -2.63815227762790
H         1.26892253533917    1.31415110782906   -4.14988947008007
H        -0.02360026126369    1.19690525059755   -2.85724059976039
H         1.64644454079755   -0.94835670262384   -0.66203990026693
H         0.88419427345088   -1.46218003807310   -2.11016195247636
H        -0.57040813584981   -0.67896259255607   -0.20392801861357
H        -0.83546690314693    0.30868755887811   -1.48099181432291
H         2.31711325179464    1.77474475772587   -0.47494913656911
