35
 energy: -49.719955254010 gnorm: 0.117371515612 xtb: 6.4.1 (79825abcba525fcdf90b791dcacef51065a7a4e7)
C         3.62247719312976   -1.34469255496326   -2.80278561611795
C         3.08102839828660    0.06517766511837   -2.98875224104723
N         4.09845620628570    1.12018119755780   -2.71002264176279
C         3.64959344689872    1.82030856381975   -1.70843774116827
C         4.07576727902454    3.24818512563865   -1.57921192402419
C         3.65030710525311    3.82686356059871   -2.93399496439799
N         4.47422204959229    4.48808921916682   -3.68472100115689
N         2.36085527946381    3.56609211402087   -3.36680215483748
C         1.21676001596495    2.99484366100851   -2.63016914594657
C        -0.06366117667652    3.77815189351685   -3.01950398126867
O         0.14128999528865    5.18667350787775   -2.90766554263975
C         0.90419115785410    1.52161618147516   -2.97393219333173
C         1.81494412466274    0.53857029807600   -2.18393125631350
C         1.00931344183578   -0.69199117219037   -1.66337943364388
N        -0.25225926379755   -0.33074755001127   -0.99821831294221
N         2.60493693905147    1.15042587439211   -1.09714654107714
H         4.50728098751649   -1.33180025536389   -3.45026821520033
H         2.90531813757943   -2.12448393859444   -3.07982416973818
H         4.06781886116486   -1.65108792354762   -1.85402835927407
H         2.98488348137939    0.07568663656593   -4.08299176195662
H         5.15192474083515    3.37929656214914   -1.44006438583225
H         3.51369873264588    3.73301660672362   -0.77859255186078
H         5.44867738033964    4.53572686432882   -3.36166524489664
H         2.39763398372282    3.54259078124690   -4.38856563181947
H         1.32038171110588    3.25788440191438   -1.56873992640467
H        -0.91983225197653    3.56425687938357   -2.37154749774996
H        -0.26065953394300    3.60552994440520   -4.08501448774235
H         0.95895647613101    5.34459958963573   -3.41692789202034
H         1.06454145245456    1.38656523427022   -4.05194853036878
H        -0.11533560506293    1.35517782781231   -2.60071868351895
H         1.49241395582468   -1.28764692270302   -0.88926609025862
H         0.79353677006059   -1.29734547064928   -2.55257418331601
H        -0.07118324279418   -0.04340264512729   -0.03955209545422
H        -0.92285653152569   -1.09890461147132   -0.94139300536964
H         2.17456018006938    1.60667413106362   -0.29535676750152
