35
 energy: -49.727135256723 gnorm: 0.099098619435 xtb: 6.4.1 (79825abcba525fcdf90b791dcacef51065a7a4e7)
C         3.52463547381959   -1.64247776239363   -2.76262383513341
C         3.07537329520385   -0.26624762499556   -3.23127993849255
N         4.15604079605514    0.76219246068204   -3.21255196295164
C         3.80927381982972    1.61330652511535   -2.29049670165640
C         4.37979193346280    2.96011115007268   -1.97779673517037
C         3.51595625303387    4.07053610444366   -2.58776927612153
N         3.83943231494278    5.32466199622039   -2.54111866510457
N         2.39325449022041    3.65389316085392   -3.28344107295183
C         1.24824620839938    2.91040438364622   -2.72300600871475
C        -0.06836500851020    3.64140330526195   -3.09288073875448
O        -0.17747199893970    5.01884990659804   -2.73346109559548
C         1.18898392245846    1.45060729245873   -3.22475493578035
C         1.92867075651491    0.38129341480217   -2.37071575381087
C         0.95991763064627   -0.53199944856057   -1.55726010196174
N         0.18216332931292    0.33900679936223   -0.66230292545593
N         2.83271643749952    1.10343499461347   -1.45378069302397
H         3.82987951059620   -1.63522994909282   -1.70950882336882
H         4.32890307747267   -2.13069445791767   -3.32292746292358
H         2.67955974054969   -2.33316298759489   -2.72873297635909
H         2.73222329368640   -0.39020467832405   -4.26742526972595
H         5.43325396149774    2.99622471783551   -2.26689997709250
H         4.45419740165385    3.14739531941281   -0.90478114687540
H         4.73166829290048    5.40356245030300   -2.03724641396291
H         2.05419210135038    4.41909550671038   -3.87115500845159
H         1.25037650358723    3.00253946987170   -1.62844377752816
H        -0.84859101404288    3.06850382524680   -2.58135247586714
H        -0.33237276889427    3.57140247865211   -4.15557500970286
H         0.21553047071621    5.20301280567187   -1.85910399178407
H         1.48361419554030    1.51222221020458   -4.28091156256432
H         0.15970396211149    1.06747538637164   -3.21000412171356
H         1.57218603289725   -1.15524025589997   -0.90599850672723
H         0.31035211165175   -1.05540404704996   -2.26985604278334
H        -0.50413598632492   -0.19572471648984   -0.13556580348436
H        -0.32969775081524    0.97443885267213   -1.27648484361127
H         2.42928272729031    1.71436203934926   -0.74648805858763
