35
 energy: -49.716506086877 gnorm: 0.118342398529 xtb: 6.4.1 (79825abcba525fcdf90b791dcacef51065a7a4e7)
C         3.64643472122094   -1.31340811786384   -2.84842739288462
C         3.07576163494559    0.05944461485481   -3.17260641709494
N         4.06210082597180    1.10355625562329   -2.76906227118310
C         3.64880326318664    1.73215696397707   -1.70657711706578
C         4.10958399734337    3.14280237699716   -1.51972000697264
C         3.58384643247565    3.80352051763096   -2.79970975570337
N         4.23406604999275    4.65598903525568   -3.52782835725997
N         2.40311072292273    3.40393361156063   -3.40320238810409
C         1.18114354168291    2.98725991513222   -2.68829943573655
C         0.03531555783265    3.86788326439637   -3.25062725526480
O         0.16076190072761    5.28663847725438   -3.15141630684246
C         0.87704555648583    1.48358944344008   -2.86932721387371
C         1.84668655080497    0.42907470436893   -2.26290601388328
C         1.03814710103123   -0.71261659906378   -1.57218069538488
N        -0.03496897588004   -0.22192819070492   -0.69346075436001
N         2.56746634105215    1.07465606255896   -1.14789114955452
H         4.62526100680370   -1.44151699517215   -3.32567460120333
H         3.05349092339910   -2.18288537118897   -3.15103114839327
H         3.98498661667281   -1.26247446590462   -1.81153972025999
H         2.88504745743836    0.10955815589358   -4.25326877966670
H         5.19214407957891    3.05007690323117   -1.40083858301306
H         3.58685529797767    3.57099808900798   -0.66217867075442
H         5.21965104158808    4.89691481600270   -3.36419903924076
H         2.34540528806075    3.86574997053827   -4.31386222355140
H         1.33012707888086    3.28917677621352   -1.64273260302831
H        -0.86472740248251    3.71548861029745   -2.64620510744188
H        -0.05421759918825    3.58202556082655   -4.30617854150992
H         1.11901222524426    5.45598887180952   -3.07431883605465
H         0.70756202488836    1.31571015146700   -3.94131698960181
H        -0.05547709032283    1.29705168212152   -2.31975460359866
H         1.68211054828382   -1.36164221473581   -0.97928932119400
H         0.64455881093545   -1.34150540113746   -2.38043055405160
H        -0.06794657599539   -0.48720843406017    0.28783196596047
H        -0.93142161972938   -0.49731232722880   -1.09785081203087
H         1.95570861042832    1.33339919666215   -0.37649115779325
