35
 energy: -49.719128821628 gnorm: 0.112825558039 xtb: 6.4.1 (79825abcba525fcdf90b791dcacef51065a7a4e7)
C         3.59907830452481   -1.60038245263189   -2.36615916376154
C         3.07166214984714   -0.36802644357580   -3.08630868281266
N         4.15899183471808    0.64789174296170   -3.19357662766473
C         3.82968977511107    1.52490974944622   -2.28956999508516
C         4.46532668612122    2.84205217541826   -1.97611108440628
C         3.55547110924668    3.96112696625334   -2.49683812220971
N         4.01082272785191    5.14599760606096   -2.75833629435075
N         2.33147288234028    3.67407525573115   -3.07773356746233
C         1.14475845905471    2.86458937611957   -2.73957902882394
C        -0.08914558451490    3.54794110015885   -3.38389501981758
O        -0.26854196813142    4.71848480362039   -2.58634229582320
C         1.22147120269133    1.43162066635131   -3.31140716702945
C         1.92655649003881    0.42621798678920   -2.35643494992870
C         0.77965126280956   -0.32625543521373   -1.61300455956974
N        -0.04284953105993    0.71030894632650   -0.96994257587995
N         2.78640921721680    1.20170000681007   -1.44055400784009
H         4.53496588643652   -1.83308646569101   -2.88792631857681
H         2.91768136136656   -2.45603792730527   -2.31425544021782
H         3.97171168788109   -1.35892475964841   -1.36856695511968
H         2.79782266331482   -0.67603763490955   -4.10456968680747
H         5.47303421140164    3.03008151153293   -2.35537043088698
H         4.43695686317807    2.92822705131210   -0.88811151728255
H         5.02881880536910    5.20468674779117   -2.63012888278165
H         1.98165913433048    4.51939000876027   -3.53487569732048
H         1.03242664298366    2.85599747912931   -1.64693652311748
H        -0.93379530705911    2.90482579147691   -3.11631857928776
H        -0.01271832746631    3.67499510101084   -4.47106358556263
H         0.44144778457649    5.38582086874750   -2.64503121182179
H         1.76661468994825    1.39345214174166   -4.26399940276356
H         0.16966087686992    1.15011984767508   -3.45589667547847
H         1.19392219334592   -1.03536961068902   -0.89677830350137
H         0.25066006026127   -1.00133317821135   -2.29719683061006
H         0.16736576642794    0.90381629226621    0.00615218143267
H        -1.05063407667400    0.56741995483120   -1.05329803139415
H         2.47541309973207    1.77750768518006   -0.66082301649653
