35
 energy: -49.730592137713 gnorm: 0.108565677106 xtb: 6.4.1 (79825abcba525fcdf90b791dcacef51065a7a4e7)
C         3.69348254064469   -1.57181662453510   -2.46884104232982
C         3.08593829096764   -0.31699751555919   -3.07859790768429
N         4.00665660135172    0.85335408902750   -3.17045065832528
C         3.78314839726966    1.52079222984484   -2.07527997436832
C         4.32033446961371    2.89121583973995   -1.80971420220699
C         3.62636365149793    3.93292612290839   -2.69547171663221
N         4.08031232749362    5.08687413878076   -3.07227324181785
N         2.40309938573691    3.64297935494720   -3.27647539666937
C         1.26729988783096    2.93879069437586   -2.65038846824079
C        -0.05511149996217    3.63964541584626   -3.05617491428603
O        -0.03535749856355    5.03483535087844   -2.75368393831365
C         1.16014742723782    1.47941358329849   -3.14537167764502
C         1.92952158089097    0.41895148773574   -2.30666119168643
C         0.85755623479053   -0.47716840254291   -1.61228663412059
N        -0.35870699041626    0.22974509394489   -1.18161383955095
N         2.75463614513188    1.06789149633099   -1.26857651579269
H         4.66216631135595   -1.76038289834472   -2.94672407717051
H         2.99253650466479   -2.41207278027255   -2.51110601660935
H         3.89823087473267   -1.35465601079708   -1.41847584096979
H         2.75979136884733   -0.62053530087787   -4.08269323330129
H         5.37965216563951    2.99332617260056   -2.05888611303592
H         4.19182128723437    3.15661673344736   -0.75851454259668
H         4.93258668802189    5.44721275181428   -2.62507970436439
H         2.13546278629550    4.35842168129949   -3.95648902447649
H         1.40868633370333    3.11558661207420   -1.57553360627841
H        -0.89199322740374    3.26577089844790   -2.45744758049786
H        -0.28428222526042    3.49765892921489   -4.11977255930407
H         0.67653676628336    5.45677593062511   -3.27140970024797
H         1.52932074939652    1.52246781463640   -4.17877751059583
H         0.07351186204434    1.31931510183071   -3.14130834772147
H         1.36112478253914   -1.01471921580110   -0.80922922163651
H         0.60620095810418   -1.19757193626497   -2.40065202710255
H        -0.11956482988614    0.90853269417585   -0.46296583091001
H        -1.04017717623156   -0.40956934754054   -0.76946032883182
H         2.20235004416650    1.68952195791963   -0.68137201882249
