35
 energy: -49.720943095734 gnorm: 0.108834226144 xtb: 6.4.1 (79825abcba525fcdf90b791dcacef51065a7a4e7)
C         3.37483493687816   -1.56173310015688   -2.65537590380580
C         2.92832342838271   -0.15871362908267   -3.03962619007966
N         4.07345950733573    0.78854141356103   -3.17097783845486
C         4.00401033928776    1.59558710835691   -2.15182010250281
C         4.62299661948133    2.95719339694712   -2.14555514802602
C         3.76366468486964    3.84617992773626   -3.05251367544032
N         4.29705373130873    4.44584888189164   -4.07012760195542
N         2.38303410407714    3.86395330055719   -3.15999926240493
C         1.20131920113121    3.20083451338227   -2.57542220248582
C        -0.04955313952228    3.88843606048526   -3.18135482405225
O        -1.24811884790349    3.19826625869139   -2.82702186000908
C         1.13365658212774    1.68959813356167   -2.88824470612591
C         1.96062645304564    0.64047415008183   -2.09111773675860
C         0.99967265838226   -0.13181421938210   -1.13485675958848
N         0.41368127577963    0.93296495862934   -0.30578414947644
N         2.97143734908182    1.33465226941906   -1.26896505534301
H         3.42482545085956   -1.50376336650540   -1.56156689644663
H         4.35703933035639   -1.64352935477120   -3.13258234437317
H         2.63573066562626   -2.28787382011795   -3.00003834778733
H         2.46210538783359   -0.18845129882429   -4.03384489709285
H         5.62966777210167    2.93801852331449   -2.57089343594372
H         4.67980518543801    3.32764755386162   -1.12012328366242
H         5.31688929983828    4.33360990395852   -4.01066838612562
H         2.21593371316307    4.06870096490142   -4.14795749259112
H         1.30054794903788    3.31383155038881   -1.48732973560914
H         0.05029641121426    3.71683570218195   -4.25802143271786
H        -0.12378689886612    4.92505756341602   -2.82946771094942
H        -1.44927706347416    3.48968538596070   -1.91736394262879
H         1.43150414932980    1.61523062127365   -3.94267655314992
H         0.10518760928868    1.31393480867071   -2.80133372977265
H         1.49913032869844   -0.85074310502576   -0.48591403768025
H         0.27985953052912   -0.74060800076103   -1.69603400690562
H        -0.42567225405795    1.35145087397703   -0.69916911546489
H         0.19864851742692    0.55000621368096    0.61622376846998
H         2.63796750602711    1.95657427223499   -0.53530002800486
