35
 energy: -49.723832811645 gnorm: 0.114720345684 xtb: 6.4.1 (79825abcba525fcdf90b791dcacef51065a7a4e7)
C         3.58139563942800   -1.28310905124468   -2.63889213457567
C         2.83324931101442   -0.06943903028475   -3.17065017036604
N         3.93435183169834    0.93713370427908   -3.18697767037643
C         3.83302576440912    1.69004434239394   -2.12977048754968
C         4.55731550509115    2.97039196473840   -1.85908748034221
C         3.93268454748585    3.85917186850491   -2.94132065906494
N         4.45408425706661    4.83830153230468   -3.61146412105664
N         2.64825795005964    3.53089993122031   -3.34193981680495
C         1.42712042265947    3.20710717342627   -2.57912373820205
C         0.24719159092697    4.12499454106073   -2.99129186526358
O        -0.93323676785268    3.72725754063396   -2.29355256748625
C         0.99549676045253    1.74793460009473   -2.84518381636209
C         1.82742174030380    0.61722308236360   -2.17485256158484
C         0.87359494640482   -0.45799549731572   -1.56787973179560
N        -0.32281002271964    0.11529787301494   -0.93191445502218
N         2.82663120189861    1.24799977997343   -1.28983382953379
H         3.89068364630258   -1.10450283814136   -1.60220585912131
H         4.45668792014716   -1.50889279114332   -3.25697563136048
H         2.87854109030991   -2.11641728121347   -2.70166591888332
H         2.38672396263724   -0.12127228491361   -4.17296890726416
H         5.59910885813127    2.79868387498511   -2.14166505827208
H         4.51930426208958    3.25876103099695   -0.80676983820047
H         5.47138930349207    4.88118495970778   -3.47200436975648
H         2.50962029062975    3.93500658964109   -4.27112387284227
H         1.53579630115785    3.34124250016874   -1.49433935738153
H         0.07861588441196    3.95791016225499   -4.06007277693925
H         0.38296299366366    5.18797939030122   -2.75560422787021
H        -0.69753074901635    3.54374532919344   -1.36423389152388
H         1.01157039476808    1.48044685975846   -3.91020126270079
H        -0.05973312778176    1.70035888175530   -2.54410025704593
H         1.34950317655936   -1.03210876004760   -0.77330520587455
H         0.65320625341356   -1.12468117122469   -2.41087424363390
H        -0.80416945247594   -0.66069857400354   -0.48412080500377
H        -1.01107396402749    0.40594402882179   -1.62819934211973
H         2.40295724175879    1.86332691445045   -0.59836699709417
