35
 energy: -49.726277881877 gnorm: 0.115331165069 xtb: 6.4.1 (79825abcba525fcdf90b791dcacef51065a7a4e7)
C         3.57108001082989   -1.47909357381860   -2.71454679608772
C         2.94460954835501   -0.14544010467590   -3.09453050292986
N         3.94468501964816    0.96149803047244   -3.07406065842391
C         3.68074567913337    1.67451004832267   -2.01728334189499
C         4.34677081970311    3.00021758547767   -1.82737560020481
C         3.61162462614516    3.98031493216253   -2.74948808449753
N         4.03996577128186    5.18838279996080   -2.94116668335761
N         2.51426562214607    3.54010365765378   -3.47061712023048
C         1.33507419046978    2.97138417790137   -2.78946171513283
C         0.12222293815896    3.76154558831086   -3.34558096111189
O        -0.08046797982373    5.07196223995775   -2.81626957316453
C         1.02394218435252    1.47184832418794   -2.99160180247198
C         1.82393128213311    0.43317477515064   -2.15426891642708
C         0.94165268908102   -0.70332117115669   -1.55073103338995
N        -0.21773637376267   -0.18958813968338   -0.80481057074923
N         2.71755627139575    1.11486970352186   -1.19704202536857
H         4.29738352705514   -1.88270626050911   -3.42998909095436
H         2.75234137795167   -2.19308575779221   -2.57661821985204
H         4.07972505831411   -1.45677544995675   -1.74856036783025
H         2.64752265789473   -0.22776406332614   -4.14889123757079
H         5.40054536601778    2.86660861315702   -2.08500901766242
H         4.26348491123875    3.27916777698122   -0.77512836785053
H         4.97641904182906    5.35967480503967   -2.55398212259814
H         2.33567200265505    4.07417093460813   -4.32430444665114
H         1.38863940600495    3.12619121985061   -1.70331005593756
H        -0.81981463317181    3.30868377519219   -3.01983721652891
H         0.25458568534448    3.86813161916378   -4.42957305038800
H         0.73264438498425    5.61178662043435   -2.79880018355623
H         1.21633059110141    1.39484711775152   -4.07008579505402
H        -0.05491670464541    1.34299838562479   -2.83071037364526
H         1.64552942747810   -1.16765538996398   -0.86051756703186
H         0.43219041085299   -1.26089063594251   -2.34649807256275
H         0.07896267369092    0.40853825256214   -0.03760067090573
H        -0.81653551617421   -0.92198735295146   -0.42006901981938
H         2.25071042789471    1.68370158942495   -0.49366537236732
