35
 energy: -49.714062634028 gnorm: 0.128405837668 xtb: 6.4.1 (79825abcba525fcdf90b791dcacef51065a7a4e7)
C         3.58975051322976   -1.38338464881786   -2.73019794141032
C         2.87270885198577   -0.09807596009400   -3.11661383568326
N         3.91536092278940    0.96547888444118   -3.20384765681493
C         3.75252882368833    1.60738284263863   -2.08301162050827
C         4.49236594182698    2.90137899341752   -1.95903617734398
C         3.81078258363787    3.80736318884918   -2.99148904466017
N         4.27074449491824    4.90361275994163   -3.50754787528503
N         2.60083258266266    3.45839720586551   -3.56790346070092
C         1.43951940891888    3.03155017915664   -2.76350287735468
C         0.24918315229407    3.93814449906026   -3.17071064765582
O        -0.40998947196489    4.22560914764780   -1.93730013620528
C         1.00321394909752    1.56377158617041   -2.96730441227560
C         1.82298103700408    0.53832176111387   -2.13280683465735
C         0.90354465825031   -0.46960103073413   -1.37582276745684
N        -0.34920553705351    0.16296906768626   -0.93426420395453
N         2.75651637389741    1.21166182418703   -1.20831679489198
H         3.38888799271153   -1.49293525849478   -1.65784977399031
H         4.65097122897431   -1.16876640021255   -2.89418475776997
H         3.14419958411740   -2.20438860490350   -3.29569288786327
H         2.42140607554790   -0.26971448576288   -4.10331562516258
H         5.53498711381586    2.81823275416630   -2.27636080800825
H         4.46711073725413    3.20292378776073   -0.91003337023322
H         5.25993135455914    5.02747403074241   -3.25781740340597
H         2.30186923389626    4.16973312844449   -4.23911707910737
H         1.49220133694029    3.30631776002288   -1.70129420360524
H        -0.51816365739432    3.39780113859702   -3.73447967721945
H         0.52644863509823    4.84129831249558   -3.72870380727280
H        -1.07700224979941    4.93821564228168   -1.94967743463297
H         1.22927182388012    1.43315920118627   -4.03403232813678
H        -0.08673023089176    1.53818896677142   -2.83391753897604
H         1.46483446072272   -0.84783306355751   -0.52181010464330
H         0.66963187280021   -1.32781213606856   -2.01803705716858
H        -0.15489712457731    0.71440943779288   -0.10206573337342
H        -0.90768678073671   -0.59270968641250   -0.53420995303112
H         2.38270749251671    2.00635113100197   -0.69354567910628
