35
 energy: -49.706967195753 gnorm: 0.129406172870 xtb: 6.4.1 (79825abcba525fcdf90b791dcacef51065a7a4e7)
C         3.80395222210143   -1.44955269572497   -2.60899870545726
C         3.06369691571009   -0.18977804655379   -3.03382141458383
N         4.03530341913199    0.93898385465405   -2.94573413148310
C         3.72540773784703    1.69765504879994   -1.93419516100429
C         4.36165261543427    3.04374515725125   -1.79140588411861
C         3.67033741286931    3.85697959425506   -2.89233967025218
N         4.26524915531261    4.72735775862641   -3.64610797789763
N         2.36217189935918    3.56147859595463   -3.23787108360743
C         1.18264509772490    2.92468257161052   -2.62052652852754
C        -0.00304236013796    3.84270295286801   -3.01551466536838
O        -0.21980098647293    5.05409143396079   -2.29163651292873
C         1.18308854035349    1.46629320923886   -3.12981209357370
C         1.89532412619657    0.44724103482167   -2.19482290200871
C         0.90070270913812   -0.59736783505522   -1.59999766024183
N        -0.24840669763583    0.27526101713497   -1.31265041291731
N         2.67243514884796    1.19811588308233   -1.18891916592977
H         4.59696223321750   -1.45104586723324   -3.36623749045796
H         3.20575188126620   -2.34585326316621   -2.80379018158812
H         4.22242096408097   -1.38399117273252   -1.60255285143412
H         2.81565482308032   -0.26975578660080   -4.10096390285627
H         5.44581518782207    3.09917912962075   -1.91862894367324
H         3.99916844534878    3.44403757669607   -0.84254066483397
H         5.20485325645027    4.81690872156723   -3.23950949037750
H         2.07256901242291    4.06862984092496   -4.07741463513489
H         1.24761259976029    2.94957820913570   -1.52429694384468
H        -0.84625264197221    3.14604610258180   -2.96762686790473
H         0.12737070981824    4.24276474216041   -4.02885681770173
H        -0.26330536471675    4.87488415318737   -1.33306498380935
H         1.74961921370461    1.51955980269312   -4.06910750781299
H         0.16230221037918    1.18282099402182   -3.41974936566902
H         1.20645968457248   -1.30625235535300   -0.83094711339875
H         0.47713260772130   -1.22393667770474   -2.39478100076929
H        -0.34151578807192    0.51642174626902   -0.32899969284997
H        -1.09895325157638   -0.24581397755707   -1.53184552464831
H         2.28085515989751    1.72899802190672   -0.41362391494132
