35
 energy: -49.727313030897 gnorm: 0.098592741571 xtb: 6.4.1 (79825abcba525fcdf90b791dcacef51065a7a4e7)
C         3.50467918113584   -1.42658092586984   -2.92990218367073
C         3.01427410678534   -0.02404947126151   -3.25837261816620
N         4.07230575592515    0.99396970596941   -2.99363127582901
C         3.71031279212881    1.64138987451170   -1.92375435158761
C         4.19437405121963    3.00289002322363   -1.53754589474401
C         3.57239972520931    3.91439721493750   -2.60226404897287
N         4.03727455180292    5.06815121577368   -2.96611551279327
N         2.37537355214510    3.49427293600492   -3.15781219595705
C         1.09944870167215    2.95126996162358   -2.65276714923449
C        -0.00413800275796    3.84481458896556   -3.27590935377595
O         0.30850276022207    5.23661180654162   -3.21589094360098
C         0.83200285068721    1.46526559577689   -2.97916455680852
C         1.83014772300585    0.45698724127721   -2.34117297005032
C         0.90110007561199   -0.66251528263017   -1.77736349583864
N         0.34549338733199   -0.15154088542962   -0.51454587146676
N         2.59294546404875    1.14201555763882   -1.27889581865689
H         3.75822488315984   -1.36963151016508   -1.86465619048569
H         4.44864407736537   -1.57636018631007   -3.46435380009920
H         2.79786362044541   -2.18856088775057   -3.26478420383138
H         2.67063363977431   -0.02679674367270   -4.30174124777726
H         5.25091027919739    3.14857025172734   -1.77666011954239
H         3.95518684329679    3.34363044907296   -0.52825929805846
H         4.94519063181276    5.32082526419309   -2.55618652462791
H         2.14280553886131    3.95119617889746   -4.04270702825267
H         1.08244888371267    3.05641819808916   -1.55950838079636
H        -0.94817332597224    3.61645031308417   -2.77066222827120
H        -0.12891362755870    3.62456852194217   -4.34354320509819
H         1.26943729258123    5.29486050435855   -3.05440046703662
H         0.92297436202147    1.37249198449764   -4.06966327454872
H        -0.18987042442599    1.23080394362345   -2.65170827661219
H         1.45264529325915   -1.59483526988239   -1.65895457230580
H         0.00782096532822   -0.94279692873114   -2.34935591632508
H         1.09045407801850   -0.19847704256505    0.17627038955233
H        -0.28253181983890   -0.85110979599063   -0.11556872310054
H         2.11735205256737    1.59815804473322   -0.50301025294364
