35
 energy: -49.723551585572 gnorm: 0.106854630542 xtb: 6.4.1 (79825abcba525fcdf90b791dcacef51065a7a4e7)
C         3.38696664188319   -1.49994633777273   -2.66886026595912
C         3.01384668899706   -0.05768953843170   -2.97895904992274
N         4.14582193051981    0.91396752491862   -2.99887378737953
C         3.83703145532392    1.76415340603618   -2.06257211227910
C         4.32776936950186    3.17196202135053   -1.94254651161203
C         3.77910086354610    3.89742870121253   -3.17704364521265
N         4.49167855666639    4.54811423256230   -4.04219460359117
N         2.52846082702511    3.45510937571834   -3.57486643290665
C         1.34013838612790    3.09231447685456   -2.77851436315869
C         0.12380162943198    3.97601960602557   -3.15828001931392
O        -0.85661824789478    4.05651869405797   -2.12351303651441
C         1.07952671867967    1.57681545472653   -2.92553754105023
C         1.92714305995179    0.60554120848978   -2.05483405415984
C         0.95411181848945   -0.35490549984895   -1.30313672692080
N        -0.14940078535792    0.35652684977132   -0.63934013494199
N         2.85548245335234    1.34928827347193   -1.18042956468931
H         3.70489770109873   -1.64363834377407   -1.62936513606199
H         4.25273714136876   -1.75537768090525   -3.28881054653312
H         2.64382633730515   -2.17723426171348   -3.09473726557110
H         2.61700165080893   -0.08564259886678   -4.00289609132682
H         5.41138669914404    3.25831553475016   -2.05649255950912
H         3.96708569229517    3.50393269820015   -0.96700729962929
H         5.50150213810169    4.63124345670661   -3.87031258822419
H         2.37869693048189    3.77934894588960   -4.53316966081275
H         1.61212615823220    3.36885529281405   -1.75084334746472
H        -0.30212675751202    3.74239529062442   -4.13941827231872
H         0.53292270503016    4.99254132262679   -3.21505040045397
H        -1.29600092924952    3.21684658421071   -1.88950264205896
H         1.29554445029186    1.51599925912164   -4.00057612045358
H         0.01270582040473    1.43623194261874   -2.70518709268440
H         1.53518777084238   -0.87674198273370   -0.54321516274905
H         0.58345796058188   -1.04049775302012   -2.07531526018947
H         0.24056944640479    0.73902458243870    0.21857317184507
H        -0.88476766080184   -0.28097274965118   -0.32978415748006
H         2.29813441649337    1.91218399230274   -0.54108219489234
