35
 energy: -49.727332990199 gnorm: 0.106915548010 xtb: 6.4.1 (79825abcba525fcdf90b791dcacef51065a7a4e7)
C         3.54640943650927   -1.49472657343636   -2.84226660157170
C         2.99425804988920   -0.11722731015848   -3.17858344803936
N         4.07440477390934    0.89778722054085   -3.00855252149067
C         3.72799617481597    1.64156665673977   -1.99779953617610
C         4.24950835917799    3.00975569763955   -1.69244946928873
C         3.62402416772443    3.89561371225625   -2.77658381289209
N         3.89916764501722    5.13596821077787   -3.03243842708387
N         2.52245438027377    3.36209975317812   -3.42459361903996
C         1.30575852691453    2.91892615913900   -2.71667035223608
C         0.14931531762447    3.82988416513545   -3.20393459025607
O         0.17577558156542    5.19363274026033   -2.78211042509910
C         0.95846370050631    1.44358612820693   -3.01504866651061
C         1.85373238620004    0.43148064993329   -2.24427754471815
C         0.92753513353828   -0.65615989120589   -1.61698719471689
N        -0.14948774618981   -0.14457547728692   -0.75512581381679
N         2.62824376515262    1.22477488774887   -1.26940665318741
H         4.52614512444056   -1.62465593895342   -3.31714975871526
H         2.87399250096419   -2.29216869314805   -3.17555866103673
H         3.56310891652383   -1.56608769926178   -1.75278214717248
H         2.69801291573075   -0.01652313782355   -4.23158481503610
H         5.33342582775130    2.98732742039457   -1.83132716840753
H         4.03545717354309    3.33363365220638   -0.67202841094273
H         4.74366621046269    5.43669020864567   -2.52985906314224
H         2.28997473324928    4.03096830889006   -4.16247821518109
H         1.31359483053964    3.14880447482879   -1.64258728597164
H        -0.81307085609037    3.52313217604094   -2.78162704594336
H         0.05152121689784    3.73285812126785   -4.29248481186977
H         0.99170257245531    5.67757768130879   -3.01217062888943
H         0.94362768253419    1.28582075989080   -4.10176857928870
H        -0.01147240246573    1.16255740738487   -2.58299348220431
H         1.59927568073955   -1.36568286908142   -1.13450909223819
H         0.53869491398252   -1.03603839210402   -2.56997004624778
H         0.27194581202227    0.06572546813792    0.14629739570739
H        -0.80063772661767   -0.86288847174485   -0.43415039005679
H         2.16552788334105    1.78088596589637   -0.55324471196378
