35
 energy: -49.716907269661 gnorm: 0.122344687586 xtb: 6.4.1 (79825abcba525fcdf90b791dcacef51065a7a4e7)
C         3.40957216623484   -1.49841000155916   -2.32654796173633
C         2.91186353728611   -0.25178023467964   -3.04326602262492
N         3.95946424036206    0.78542401496485   -3.27266110976571
C         3.80563313922224    1.55534631582061   -2.23420840668401
C         4.43713588616810    2.90881820897899   -2.15375366002693
C         3.80870083909405    3.92006489965393   -3.12007226534180
N         4.34448899410111    5.04917110322796   -3.46313932669854
N         2.56724027775909    3.65564411408107   -3.67402817117805
C         1.53057890057495    3.04366154885204   -2.82037864653534
C         0.32217704789835    4.01502209484544   -2.79113011286388
O        -0.61421762140000    3.66542686994231   -1.77162329325665
C         1.15017083298262    1.60747233158352   -3.24337010350770
C         1.80907299421804    0.57471914726952   -2.28461023909622
C         0.70837240949218   -0.25338055226063   -1.55180355327729
N        -0.26448196478652    0.63618281914659   -0.89855525610625
N         2.78574228256043    1.19887103840018   -1.37022059043728
H         3.54492711594140   -1.30369029611370   -1.25601493888681
H         4.41997628769214   -1.65860102481430   -2.71714292981812
H         2.66604966016481   -2.24532668936166   -2.61227057765351
H         2.53256863553400   -0.45034448703513   -4.05490925610415
H         5.50597805379617    2.76949752610478   -2.33495320172317
H         4.11940317802657    3.31108192430963   -1.18980147107238
H         5.27482201051103    5.17820746432673   -3.04597310867814
H         2.23184149337871    4.44414791807829   -4.23230677581840
H         1.92851772176278    3.07293841039583   -1.79697870243784
H        -0.12402972765450    4.11341506946253   -3.78604012082858
H         0.69836570891951    4.98716165932859   -2.44857195873913
H        -0.93133010277120    2.74306115144851   -1.81097318461902
H         1.72159876152114    1.41880823972247   -4.16203554771418
H         0.06391012703182    1.53037726639961   -3.38661423942237
H         1.29995414113271   -0.77776736980833   -0.80180829828924
H         0.23972447528298   -0.99362641533758   -2.21217153240820
H         0.00212010225333    0.76997720273202    0.07377130242383
H        -1.23010919096204    0.36028877300859   -1.08413978392882
H         2.47854275496862    1.72429134707151   -0.55424546888332
