35
 energy: -49.715193716660 gnorm: 0.125250829788 xtb: 6.4.1 (79825abcba525fcdf90b791dcacef51065a7a4e7)
C         3.52463701263898   -1.40671608356334   -2.42957632691932
C         3.03901887148358   -0.06529981866972   -2.95897398109467
N         4.11576888993216    0.96625988186703   -2.91022981447479
C         3.81767480136709    1.83183467367972   -1.98462264879499
C         4.38444644616657    3.21439055897126   -2.05143640847494
C         3.74618992019318    3.72534083142448   -3.34869530039214
N         4.46515822863365    4.30557967238072   -4.25756948507277
N         2.41700667787062    3.52042661988826   -3.67928861216206
C         1.32827345294848    3.06003699925917   -2.79576817129368
C         0.06413157733809    3.92674888750939   -3.03111404595281
O        -0.69349954658010    3.88572726779235   -1.82166860393080
C         1.00648601649340    1.57052723304678   -3.04891848864123
C         1.89849352599368    0.66163847370550   -2.15550058434781
C         1.01139519800462   -0.40006710750573   -1.43429714134555
N         0.18599521704389    0.34554113356823   -0.47134064491849
N         2.71148365077547    1.47849310572397   -1.23281292012927
H         4.12978243402486   -1.36994324218927   -1.51594376547223
H         4.14505053353159   -1.85800096742409   -3.21096681817549
H         2.75237293389085   -2.10529646588718   -2.10103210205849
H         2.79072960723442   -0.24961206306543   -4.01305930208549
H         5.44940754608184    3.28975578693051   -1.81724617326427
H         3.86107255238301    3.77128869873651   -1.27174528466805
H         5.44308968136948    4.27064633305740   -3.94351963448798
H         2.19139875992290    3.60187908839393   -4.67345769422327
H         1.57409963069139    3.25623965965294   -1.74332629303126
H        -0.50903762852106    3.42968991920205   -3.82044100346669
H         0.38036023581147    4.96000465384224   -3.22164303048298
H        -1.44796946590440    4.50383484785465   -1.86148596718933
H         1.19669201773948    1.29835994061561   -4.09573120575115
H        -0.07417982586121    1.44843224100899   -2.89503856427221
H         1.51926204316456   -1.01529395192815   -0.69199628349826
H         0.50619329184724   -0.95186550611315   -2.23677472833730
H        -0.31261618823838    1.12243059751574   -0.89821998157146
H        -0.57571644897958   -0.25158646826447   -0.14541265703666
H         2.19654408554383    1.95239191211987   -0.49354933778019
