35
 energy: -49.720975067701 gnorm: 0.113091544920 xtb: 6.4.1 (79825abcba525fcdf90b791dcacef51065a7a4e7)
C         3.41797113949577   -1.51469075491862   -2.43465135433396
C         2.82631384617244   -0.25446457499218   -3.04886311122433
N         3.92094223409515    0.71021615907660   -3.36041052437232
C         3.93272809554974    1.53187828816862   -2.35067745878146
C         4.63985770568186    2.83251696056901   -2.13745995046898
C         3.77315265885652    3.84242229508330   -2.89919203102878
N         4.31539851360602    4.92808391022808   -3.35411301286094
N         2.46283026304100    3.63571994715545   -3.29711059223848
C         1.23380137709032    3.07455336994110   -2.70340440096331
C         0.08355815865468    3.92485273304605   -3.30220600931982
O        -1.12339031303701    3.75773037169860   -2.55803434878435
C         1.03869667262750    1.57429701680702   -3.01555274080442
C         1.88512730245015    0.61223317399402   -2.13354362770058
C         0.95445414040471   -0.26672412639572   -1.24159176791044
N         0.24880115729780    0.71880879027451   -0.40775681382835
N         2.94550443081404    1.33347139671536   -1.40212532254806
H         3.87775660736373   -1.35690759765345   -1.45180880198264
H         4.12801368878586   -1.97575232800467   -3.12920436716477
H         2.55453294840432   -2.17822222950272   -2.35373074478249
H         2.45146064254508   -0.48878152256810   -4.05449479065718
H         5.62333461322085    2.98912385570829   -2.58792037530354
H         4.78217368840540    3.09461869209763   -1.08721100873728
H         5.31680983280174    4.95672319519195   -3.12486919486293
H         2.15502518469488    4.26276826253454   -4.04408585666581
H         1.22448440382757    3.28928847702998   -1.62620343880356
H         0.04106334551789    3.74030911081386   -4.38052202706930
H         0.35079333804688    4.98836855000500   -3.26427452732011
H        -1.65383697313696    3.09160545045045   -3.03528815049075
H         1.37519295784908    1.44393411910678   -4.05278269907541
H        -0.03212987463422    1.40932165993093   -2.83516836204156
H         1.62476119420230   -0.99372485721001   -0.78376891752610
H         0.12397099090584   -0.71142516459931   -1.80392568955769
H         0.85059120779925    1.36517754471624    0.09667624267959
H        -0.43059791638956    0.31282065398585    0.23767762852509
H         2.68476584601298    2.17661340818405   -0.89479856968828
