35
 energy: -49.719326379018 gnorm: 0.108811493888 xtb: 6.4.1 (79825abcba525fcdf90b791dcacef51065a7a4e7)
C         3.55349503622506   -1.56083298550608   -2.92884356684801
C         2.99462710362465   -0.17558291845944   -3.21907335727883
N         4.05754578442067    0.86594434310108   -3.11273968055643
C         3.79103446356526    1.58921805780554   -2.06360896006056
C         4.27425406116065    2.94608689638636   -1.66042077864379
C         3.58357150102023    3.96866458420513   -2.57070351610697
N         4.18864098097565    5.00279949753526   -3.06476901612048
N         2.30718383644305    3.75439958224777   -3.06358776398954
C         1.12770422502311    3.04601027922842   -2.52980932336390
C        -0.06865930292535    3.82295518519323   -3.13784120459119
O         0.01782206457948    5.22563538443527   -2.88593806335711
C         1.08005342958667    1.57267307530368   -2.99163010096794
C         1.88391688303291    0.44022858253049   -2.29068452123518
C         1.08414387376530   -0.69771254325621   -1.58375475423760
N        -0.03895449070328   -0.11718517242898   -0.83133199250933
N         2.76209329652554    1.08048741152306   -1.29146893751831
H         3.96166643910773   -1.73557818750541   -1.92627790912218
H         4.37010872994859   -1.71742319754261   -3.64141894135172
H         2.85690601842195   -2.32984012059207   -3.26904855589011
H         2.79781232154702   -0.13551558620948   -4.29906084496954
H         5.36078920454184    3.01249360766954   -1.75890260446306
H         4.04590246208122    3.17419699975938   -0.61744650826280
H         5.14076984081712    5.01151419967496   -2.67802328848760
H         2.12333332543166    4.48167120909378   -3.75869967716205
H         1.07867453465364    3.05449386645033   -1.43250170697018
H        -0.99076022291826    3.31850932650139   -2.83142340740470
H        -0.01238145743997    3.69745545512620   -4.22641915628237
H        -0.62373565290832    5.75978676841223   -3.39185629235011
H         1.46917756399603    1.68761335412525   -4.01214044606974
H         0.00114266133333    1.37472886818339   -3.04815018478239
H         1.76893231285377   -1.31940027404046   -1.00754947678705
H         0.66785221168599   -1.46149354633922   -2.25235069984497
H         0.19257311659734    0.55925629025386   -0.10799358512798
H        -0.50004891991924   -0.90392009919699   -0.37151119179227
H         2.38104244430886    1.82322538039584   -0.70889357261903
