35
 energy: -49.725284807271 gnorm: 0.118371378750 xtb: 6.4.1 (79825abcba525fcdf90b791dcacef51065a7a4e7)
C         3.60990904231909   -1.52010662436316   -2.66182323680689
C         3.07730974763344   -0.17685233124184   -3.13878268077844
N         4.08496962801610    0.92175051888294   -3.07898867624060
C         3.77312576430752    1.57937137136946   -1.99958299538029
C         4.38911233500457    2.92590247170975   -1.78846823110270
C         3.58359596446957    3.89935990392849   -2.65728706723588
N         3.92351373990895    5.11571020235164   -2.94813523937072
N         2.47492148813097    3.45113450132800   -3.35581747920248
C         1.21863513327826    2.95525771194539   -2.76104207902394
C         0.06509190630535    3.78119655210640   -3.38697727239301
O        -0.18172663789739    5.04214828455660   -2.76446038014230
C         1.03269153095973    1.45210528556379   -3.06473479730124
C         1.87656891245575    0.39395742910685   -2.29782820403739
C         0.93461457826043   -0.57097637790742   -1.51302166600161
N        -0.03207971431201    0.23386743954898   -0.74998133850037
N         2.70502150971763    1.07229563171840   -1.28142252560189
H         4.59466638480441   -1.58975249858897   -3.13898160518775
H         2.93152869907720   -2.31468491953912   -2.98982860007777
H         3.66880416532880   -1.61431704359471   -1.57554361438958
H         2.77733055598394   -0.36996987082359   -4.17774009257967
H         5.43743816513001    2.86651791299194   -2.09203627126066
H         4.42185588620529    3.26365387714298   -0.75076604408860
H         4.87607177535379    5.37101549463532   -2.65891220900111
H         2.20679166881547    4.17060602347734   -4.03137113288421
H         1.08508431430167    3.13717012932002   -1.68603885771916
H        -0.84868284560048    3.21644381037814   -3.17555911780366
H         0.10029228951931    3.84077237941199   -4.48202566003597
H         0.65514108653969    5.47651478608854   -3.01713688607089
H         1.26197470910463    1.23875621767097   -4.11734184926585
H        -0.02261269511235    1.15914452824663   -2.98147710474803
H         1.47773379390511   -1.13779864392938   -0.75725888197841
H         0.30808787823526   -1.15965134040186   -2.19464236377838
H         0.25365311103878    0.23424792694285    0.22610940796025
H        -1.00076051613007   -0.08962830534846   -0.74822367920979
H         2.25271132696265    1.74375870723263   -0.66432746487424
