35
 energy: -49.718743481921 gnorm: 0.125517095860 xtb: 6.4.1 (79825abcba525fcdf90b791dcacef51065a7a4e7)
C         3.74917553584769   -1.37139744389512   -2.81282044915377
C         2.99371729251041   -0.11942911260111   -3.23394108058284
N         3.98154303078380    0.99499082048959   -3.14366073056557
C         3.70734729809634    1.62468059626440   -2.03770597506226
C         4.39266538099361    2.90489944700401   -1.67918989980592
C         3.65612926405758    3.90648926606531   -2.57677253094211
N         4.23359827183751    4.91050047604502   -3.15826703529703
N         2.37980047872119    3.68724410963227   -3.06761491218531
C         1.18310365342031    3.01847655589265   -2.52119598009747
C         0.01586542407020    3.76339881373389   -3.21924869976457
O        -0.06298548593692    5.12986267370619   -2.81304060450605
C         1.00617739074707    1.55080666066111   -2.96942999356607
C         1.85269330461232    0.43002896429224   -2.30068500393741
C         0.90310898823350   -0.68072497159990   -1.75404811062636
N        -0.10425734691106    0.01228646582141   -0.93584874430497
N         2.70709871814942    1.05412209582560   -1.27109474070136
H         4.10303212409972   -1.16229758588583   -1.79628690342937
H         4.64309664578729   -1.47605140451749   -3.43659499086747
H         3.12308372419956   -2.26519816984853   -2.77438907226501
H         2.79803291974206   -0.14975555676510   -4.31445130811044
H         5.47310339537763    2.84044486205403   -1.83139515654270
H         4.25477570386207    3.10809807412671   -0.61538975035338
H         5.22355614796187    4.87879737178939   -2.88408481510346
H         2.23677510080383    4.34562962304997   -3.83701588486101
H         1.12868259367424    3.00646458101865   -1.42417549424273
H        -0.85504282888433    3.16597053162458   -2.93075976733959
H         0.11629417743242    3.78222392029411   -4.31171335111276
H        -0.94271478560560    5.36391957813895   -2.46067575738086
H         1.12960883771157    1.58933746564385   -4.06000336147866
H        -0.02639601735515    1.27111859644996   -2.72044881656568
H         1.38942735797388   -1.45011682926076   -1.15490374472463
H         0.39191688079678   -1.15264427127805   -2.60237323445734
H         0.29939542202012    0.69570725933512   -0.29992657816880
H        -0.42603303682982   -0.78961408101169   -0.39141233021281
H         2.16010952187884    1.65148666318405   -0.65448150157176
