35
 energy: -49.721620608523 gnorm: 0.124141119076 xtb: 6.4.1 (79825abcba525fcdf90b791dcacef51065a7a4e7)
C         3.64689430315016   -1.30431778450304   -2.99385002466493
C         2.89457782667956    0.00135683703365   -3.20531669601642
N         3.90148264929565    1.10093967992540   -3.15107403513501
C         3.68604218823356    1.67208376502518   -2.00120087773444
C         4.36241443515899    2.96024033518884   -1.65431732348163
C         3.61395532300646    3.93218327977380   -2.57434888209402
N         4.06293328493328    5.01718376113748   -3.12283549391178
N         2.39705953931262    3.57403696615879   -3.13014176164667
C         1.17110240174969    3.01674751047413   -2.52651560212189
C         0.01746946740832    3.78261723548274   -3.22451736903451
O         0.13474981024072    5.18284148215443   -2.97140999268781
C         0.91802046904442    1.51845354334634   -2.80460957568918
C         1.85281523333301    0.47625609088842   -2.12642456259102
C         0.98446648874770   -0.73780117147508   -1.67218675896040
N        -0.17112736755497   -0.36011952579143   -0.84365710587059
N         2.73892606981506    1.13608935648969   -1.14714697886470
H         4.20545757593172   -1.31008685565802   -2.05031864202887
H         4.33826188860563   -1.31380842090928   -3.84300423684518
H         2.90974579213407   -2.07823537390205   -3.21748210582059
H         2.46150801340098    0.07083541887300   -4.21246002778543
H         5.44418610092089    2.94637519192874   -1.81002525824443
H         4.12860923810930    3.10153936970240   -0.59727251922039
H         5.03057901487780    5.26608288955328   -2.88219358170240
H         2.27630271019078    4.04933234082672   -4.02759242495310
H         1.13927164957112    3.35169031862198   -1.48087704210228
H        -0.99783223816332    3.42678439969050   -3.02160597687313
H         0.26672717432473    3.67689709154703   -4.28782032980044
H         1.08308853430340    5.35741948598869   -2.81960931097400
H         0.89353791293851    1.32159780510563   -3.88475707863976
H        -0.08597661803115    1.18130774792287   -2.51349544822757
H         1.58165916796096   -1.49493714137343   -1.16469352341227
H         0.73536145652231   -1.22275275678720   -2.62426309763333
H         0.25110435299314    0.04400822028195   -0.01131241792162
H        -0.58789112038149   -1.24406603826622   -0.54710757574244
H         2.23383709093753    1.70794520390419   -0.47326308530980
