35
 energy: -49.727340378564 gnorm: 0.101152557816 xtb: 6.4.1 (79825abcba525fcdf90b791dcacef51065a7a4e7)
C         3.72426890521439   -1.32230270226072   -2.54658747337050
C         3.10471444691247   -0.03066725829334   -3.05972934281249
N         4.03413348609240    1.12609947035034   -2.90496185804828
C         3.61252844450362    1.83718887745667   -1.89926336880718
C         4.03727281446606    3.27102528715885   -1.86993260475570
C         3.54302410552198    3.67257350806661   -3.26485174978433
N         4.36866853125348    4.08710056814845   -4.17376505533748
N         2.18739797810492    3.62325661895098   -3.54387768468899
C         1.17275131827384    2.96066076928374   -2.70163908799541
C        -0.06919338733197    3.87863038076694   -2.84141368259943
O         0.28599204606331    5.12180905586774   -2.23577679416185
C         1.00289788809324    1.44764445974849   -2.96279601501854
C         1.90307992836490    0.45754885055799   -2.16948988617303
C         1.03745327831039   -0.65191221636568   -1.49563296453681
N        -0.12797951121865    0.01404091480538   -0.89332506362073
N         2.58156391814346    1.29014778629911   -1.15657558084994
H         3.93825585771385   -1.21739407732865   -1.47631580633146
H         4.59354412754690   -1.60040315904126   -3.15170134612261
H         3.05616863890169   -2.15735908798893   -2.76720146072143
H         2.78941313763969   -0.13947580095821   -4.10637168293812
H         5.11843584790963    3.42782528230794   -1.83576558025319
H         3.58930844474028    3.79436240443671   -1.02292601024728
H         5.27441044262664    4.30202432776596   -3.73829182377994
H         1.87845285894972    3.63973838106306   -4.51865296659028
H         1.45692829880548    3.09708284170846   -1.64940701396466
H        -0.90043516899890    3.38438182774135   -2.32820509569562
H        -0.43990223411720    4.10775544371888   -3.84838735107848
H         1.13622736078126    5.37066567846128   -2.64570063015124
H         1.20132490680924    1.37323586732351   -4.04036748318862
H        -0.03498676925058    1.15116506978330   -2.75952214036685
H         1.63915029815133   -1.13046466564166   -0.72336902117349
H         0.67754362685949   -1.33634587457356   -2.27389789611592
H        -0.80353635537760   -0.67951775053559   -0.58188347192647
H         0.16634170002334    0.59598982387403   -0.10738258762126
H         2.20206165518899    1.63727422973188   -0.27809125329649
