35
 energy: -49.715619251350 gnorm: 0.136195146138 xtb: 6.4.1 (79825abcba525fcdf90b791dcacef51065a7a4e7)
C         3.90441981833783   -1.32407465643850   -2.41863664850075
C         3.04284298616952   -0.20135889648766   -2.97781384113849
N         3.89234855102850    1.00782821134304   -3.18296953088810
C         3.64094397611973    1.66564081349428   -2.08802351813403
C         4.19764376514956    3.05277186593775   -2.03227622940043
C         3.55757649057036    3.75697759617197   -3.23466151668026
N         4.18354698833848    4.29846001246217   -4.23195913685333
N         2.17466982679891    3.79971355497960   -3.29592039159687
C         1.12939276428511    3.03173619989589   -2.59199310553913
C        -0.21113029238804    3.74160659534735   -2.91403936200542
O        -0.18188044062315    5.05963246546060   -2.36595340820511
C         1.08157739527786    1.54270995702817   -3.00038761616192
C         1.87852907174799    0.49035238203267   -2.17736680714483
C         0.98119632530636   -0.53084377497056   -1.41169786299816
N         0.04529737290048    0.24726348811769   -0.58517247120652
N         2.75456001258825    1.12591771430226   -1.17328340887502
H         4.06605924458988   -1.25375648426512   -1.33641406004391
H         4.84379396139807   -1.33555570596583   -2.98129683751932
H         3.49697721622787   -2.30340738260005   -2.67795422184374
H         2.54903614474331   -0.52838510374146   -3.90297495971915
H         5.28172000570939    2.93679449925368   -2.10970427312572
H         3.98472692440452    3.55418710650189   -1.08611388478791
H         5.20897340901782    4.23197659849443   -4.21528057142893
H         1.92044848649283    4.04135921369922   -4.25658916396821
H         1.25338946766570    3.00433023208720   -1.50092316469654
H        -1.02013075655272    3.16363806007134   -2.45567464194650
H        -0.34592579815126    3.72391799191542   -4.00281694023270
H         0.67971079842722    5.37174837479714   -2.70227387814363
H         1.41764945904839    1.32522344249839   -4.02304366620273
H         0.01557043836446    1.29224127185661   -3.08594157527318
H         1.57263999256318   -1.22354345737967   -0.81352990881439
H         0.47221344170470   -1.05619537411865   -2.22939147281314
H        -0.20490008333483   -0.34123650629393    0.20569131622408
H         0.36212902703477    1.17049360923075   -0.28474122810793
H         2.42985644028603    1.79536553701626   -0.47854554524629
