35
 energy: -49.715203913534 gnorm: 0.103867513151 xtb: 6.4.1 (79825abcba525fcdf90b791dcacef51065a7a4e7)
C         3.67236666162347   -1.36968723699899   -2.89942685557959
C         3.10974253261446    0.01935997706519   -3.16302956633717
N         4.13785686659852    1.07217522477282   -2.91717800154863
C         3.73161827117276    1.66690271384201   -1.83269754252371
C         4.24145328802103    3.04449590577697   -1.55081064829267
C         3.63497469726381    3.91492951210152   -2.65799232733939
N         4.35159386824304    4.71452668980656   -3.38376511624885
N         2.31111167085865    3.75096352921695   -3.03016392535542
C         1.15606904047129    3.00398798846563   -2.49555094257923
C        -0.14890813630078    3.74793998472817   -2.88052086109211
O         0.12811161672445    4.97945144836702   -3.54766816981166
C         1.01794570864071    1.52799179065543   -2.92986502742398
C         1.89455330155023    0.43471222147132   -2.25440175330585
C         0.93671719910722   -0.68047359481142   -1.73170949709689
N        -0.07273355353657    0.03581875640628   -0.93645077179153
N         2.72084627024135    0.99638178705320   -1.16751436132031
H         4.44065531020797   -1.20327118768127   -2.13502124378808
H         4.17781907794853   -1.67774655335605   -3.82070824475681
H         3.13664713159835   -2.25907168234876   -2.56127369569344
H         2.78812287392444    0.13894428757360   -4.20656913157126
H         5.31235007023394    2.93750436420194   -1.74159861589835
H         4.04897726391323    3.45886353546195   -0.55923288706546
H         5.35499958125141    4.67412572459525   -3.16526498789948
H         2.13403034787960    4.20137635648881   -3.93109460649095
H         1.10987431449856    3.06255170634187   -1.39965120593016
H        -0.84224926483040    3.90887097500456   -2.04865134655435
H        -0.64314548399857    3.02308725778311   -3.53948770868954
H        -0.40108652470116    5.70658096011185   -3.16806408542024
H         1.15891397786765    1.50058491536679   -4.01864738838474
H        -0.04091648184613    1.28996346744437   -2.76081395103364
H         1.48706141990552   -1.39679638787603   -1.12224558074787
H         0.44089197311567   -1.19319791114176   -2.56534721092298
H         0.28716661814709    0.17874345338346    0.00399642988853
H        -0.90476759458500   -0.55604946732668   -0.95661137459955
H         2.17338275555033    1.52315104522290   -0.48998108017736
