35
 energy: -49.727434642202 gnorm: 0.116846608868 xtb: 6.4.1 (79825abcba525fcdf90b791dcacef51065a7a4e7)
C         3.61718656609870   -1.36626132354783   -2.97439994254451
C         2.99172337067865    0.01275252961757   -3.12473622778483
N         4.03496841083234    1.06822392124614   -2.97143286520985
C         3.68251450777288    1.69573121011626   -1.88661063370084
C         4.23343357887313    3.04633484747186   -1.55568323421484
C         3.71286927663240    3.83464751216810   -2.76353179784673
N         4.18773693158750    4.91610895497135   -3.29699845703529
N         2.52785936256260    3.44780616623015   -3.36695132817913
C         1.27889584257683    2.98860873907588   -2.72888016244407
C         0.16824200977780    3.86233585266243   -3.36737904156631
O        -0.02827689350972    5.06103472873822   -2.61708091322199
C         0.84821987680596    1.50536376485005   -2.75670222919434
C         1.85280198046830    0.48549026113795   -2.14791286450844
C         0.96221238605271   -0.72540143707240   -1.72971674150381
N        -0.17680639003219   -0.40343483468543   -0.85594578114062
N         2.64000120138466    1.20055500224880   -1.12392227934973
H         4.04768599569510   -1.53419731555870   -1.98004315724704
H         4.47420155208686   -1.31957513015028   -3.65446449273858
H         2.92578966923642   -2.17690194679543   -3.21352285725538
H         2.68255457550783    0.17719444800481   -4.16593165698465
H         5.32361429509541    3.12319260228303   -1.57199372070383
H         3.86737894266374    3.34948895982178   -0.57279179055570
H         5.10136232028541    5.13510798251258   -2.88043436202535
H         2.32020061117515    4.00670027332521   -4.19786698081581
H         1.27586604882732    3.37821035820540   -1.70186444504283
H        -0.82058534197368    3.39347607947326   -3.33546398934604
H         0.40109285209522    4.06623801955880   -4.42005359640839
H         0.79858273552503    5.56907016970573   -2.51186492633517
H         0.63820334066111    1.28285877888319   -3.81143195001507
H        -0.08475923457763    1.45781607759420   -2.17902233448401
H         1.58686148913037   -1.53248320468882   -1.34777974935720
H         0.42200134951275   -1.12601199622923   -2.59652924563739
H         0.00854976666630    0.22804724718780   -0.08052975927812
H        -0.68738944396858   -1.23569597428147   -0.55654401001266
H         2.08067181330319    1.85364585009551   -0.57905856780654
