35
 energy: -49.721007870577 gnorm: 0.113488418538 xtb: 6.4.1 (79825abcba525fcdf90b791dcacef51065a7a4e7)
C         3.49700580058046   -1.36866852420763   -2.81080004394245
C         3.04592675509892    0.04150720368871   -3.16210699165510
N         4.09651475718684    1.07412729956903   -2.92579659910209
C         3.79373415931091    1.71367692337071   -1.83303466898249
C         4.25584569591218    3.11336234115504   -1.57908854110812
C         3.73296522662025    3.75691834459248   -2.86895438797081
N         4.42528910046508    4.59987081592423   -3.56878551403804
N         2.44290893428986    3.53507917245307   -3.32122863452749
C         1.20733729565034    3.00599150613935   -2.71185523695553
C         0.01774482346608    3.80153924861092   -3.30901968892955
O        -0.17582390683805    4.97863207817571   -2.52452648912826
C         0.83880191625281    1.51366657452029   -2.86488960298580
C         1.85451181362153    0.50992039393713   -2.24781690324000
C         1.05420044361715   -0.64614470066430   -1.57156857572709
N        -0.11268133315984   -0.19006676080101   -0.80028275790334
N         2.68536376873357    1.16171921335640   -1.21611912927978
H         4.25498936963142   -1.72010875508795   -3.52089043082677
H         2.68395329786915   -2.10136874769085   -2.84598659693223
H         3.88260222241967   -1.25469969993922   -1.79557879681882
H         2.61922748646010    0.10193304477308   -4.17254792881582
H         5.33855869311500    3.26216437155523   -1.56303631558736
H         3.76328899353810    3.53566171269173   -0.70100816348702
H         5.37603702291789    4.81248389615849   -3.24156749591355
H         2.38368860806621    3.84039849678766   -4.29548664164960
H         1.29426520032369    3.19375057313263   -1.63308280090216
H        -0.90642962472810    3.24453912870787   -3.12387095315581
H         0.13827702359645    3.92497999921900   -4.39260341894459
H         0.47214286259984    5.68130972364860   -2.72264375937639
H         0.89264712986376    1.44252221714401   -3.95947144000732
H        -0.18414239812377    1.30835178032564   -2.52158851814638
H         1.81382537073891   -1.27826597161350   -1.11239972153276
H         0.68786309462538   -1.23982410085264   -2.41834034981563
H         0.06897354333138   -0.15965383485028    0.19995376323850
H        -0.95575951159634   -0.68788816119904   -1.09077909887799
H         2.24363045976815    1.77109672842491   -0.53071105757307
