35
 energy: -49.718056500334 gnorm: 0.102483353954 xtb: 6.4.1 (79825abcba525fcdf90b791dcacef51065a7a4e7)
C         3.56665062309829   -1.54400168526209   -2.48573144573230
C         3.14586075531284   -0.22985872189470   -3.12717404181360
N         4.12420869289643    0.88418469145728   -2.96096760025983
C         3.74438540152825    1.63683169160032   -1.96895693935774
C         4.29284907366044    3.01701539112336   -1.79165651488978
C         3.54858496926286    3.97027509771807   -2.73435956293523
N         4.01410334472537    5.10990916620995   -3.13954054459552
N         2.38352124345095    3.53593562340454   -3.34426576612777
C         1.21375156058006    2.81589639347389   -2.80473876042344
C         0.01628663223877    3.70658021067484   -3.22591797683154
O        -0.07366049859734    4.91054641723756   -2.46380194227201
C         1.20500278327852    1.37312675272633   -3.35665432615543
C         1.90213189363846    0.38090685206522   -2.38225071652215
C         0.83716279789590   -0.47149913632482   -1.62492553901198
N        -0.03848537052829    0.32061860569077   -0.74726288117735
N         2.59037764003016    1.18582175467285   -1.35366589171972
H         4.42357407859788   -2.07050190292744   -2.92248926198603
H         2.70893630633499   -2.22343659547703   -2.52858510024431
H         3.68484982988574   -1.31260582282058   -1.42515020334912
H         3.01985851353327   -0.29364707081537   -4.21656327476934
H         5.37125302043526    3.10831074812810   -1.94455257803272
H         4.08883906843989    3.39120713390096   -0.78650257333501
H         5.00266450998881    5.25782170478331   -2.90065507864533
H         2.21940216481554    4.16696815348148   -4.13215438641015
H         1.21679580518236    2.79548016709151   -1.70649752868472
H        -0.88485342850711    3.17012070863660   -2.91161653639026
H         0.22843783944274    4.05712057898285   -4.24377486812127
H         0.76916514717677    5.35218750800804   -2.24593652975766
H         1.75792244314921    1.32783727652570   -4.30444065964285
H         0.21729503363570    0.99937230377614   -3.65859121821168
H         1.45636571390603   -1.13702854861834   -1.02400814166107
H         0.36519685744013   -1.05520426035483   -2.42506127074548
H        -0.44075508335844   -0.32001842223964   -0.06743951011195
H        -0.81888938953180    0.81574118941489   -1.18179513240843
H         2.17231658467583    1.28506599441632   -0.43082842310049
