35
 energy: -49.724040009147 gnorm: 0.114181866629 xtb: 6.4.1 (79825abcba525fcdf90b791dcacef51065a7a4e7)
C         3.53687270430494   -1.46512157150596   -2.96540145758010
C         2.98036851998866   -0.06255633560910   -3.16186594851887
N         4.04423852230462    0.96435299251438   -2.96306993575175
C         3.69586510289933    1.61541464610013   -1.89088380168591
C         4.25270155997801    2.98318488151653   -1.65362301924815
C         3.56114379021166    3.98541974847455   -2.58560762899078
N         4.14005471316326    5.08817964361659   -2.94397553680668
N         2.45409634955030    3.52720561344368   -3.28022666438631
C         1.20958910795628    2.95907953212047   -2.72674545788452
C         0.05846048258145    3.71664625471570   -3.43782026843749
O         0.14519824759005    5.10719671622246   -3.12590371800647
C         0.95371684316479    1.44199509656873   -2.86551047608074
C         1.88540248747104    0.42662480298639   -2.14375101090018
C         0.98116962177990   -0.68949427909092   -1.53470447067864
N        -0.10493943659068   -0.06488743757254   -0.76351358041897
N         2.63346997497956    1.18102300668419   -1.11864841674734
H         4.24545810735936   -1.62291404894698   -3.78715929565445
H         2.83165140958412   -2.28658757586227   -3.12971398295910
H         4.16755126290863   -1.56791208237474   -2.07994884343588
H         2.54397497440551    0.01853202153122   -4.16670413369194
H         5.32083678373903    3.06831191358739   -1.86927940293687
H         4.12722116853597    3.34268743769928   -0.63039939561069
H         5.02812074454101    5.31650304984732   -2.47985841153542
H         2.35756848958178    3.80720195375312   -4.25909846988328
H         1.16677518541972    3.11602690104255   -1.64042396782311
H        -0.93302023904183    3.38266247473171   -3.11525491632991
H         0.12063011332447    3.56788957972106   -4.52314313272831
H         0.87841212037795    5.44845948515701   -3.67253375802894
H         0.87341186912367    1.13337976589355   -3.91640433112850
H        -0.02170539230185    1.28892012301717   -2.38431987039826
H         1.59426038656110   -1.37061388409447   -0.94509514346639
H         0.46433248304147   -1.12376784749120   -2.39955506798728
H         0.12420993080347    0.35980121938709    0.13176662700190
H        -0.78463795515519   -0.74935013057217   -0.42807978387460
H         2.32467196613974    1.82319872505651   -0.39166312481982
