35
 energy: -49.717182853577 gnorm: 0.119864487485 xtb: 6.4.1 (79825abcba525fcdf90b791dcacef51065a7a4e7)
C         3.57252257478960   -1.47241133173107   -2.81365118311871
C         3.03513040599071   -0.11527766616916   -3.24363063592353
N         4.01347607860887    0.99143555579443   -3.03408922464139
C         3.73566933170885    1.60764840983551   -1.92146460026167
C         4.16108365624479    2.97971193251322   -1.50478811905746
C         3.63637787734889    3.91691562981096   -2.59916249452748
N         4.27213653233202    4.93093066965184   -3.09638401585318
N         2.46938773318890    3.55279705341190   -3.24997853298835
C         1.23964875902027    2.95756633397976   -2.69199159956810
C        -0.00460998867661    3.70364848841072   -3.23954381025961
O        -0.06664738831405    5.11573010741495   -3.03799278376778
C         1.02111010569427    1.45542206227726   -2.97847894348734
C         1.92293547967117    0.40942476726851   -2.26255130954223
C         0.87461442075214   -0.59461553262314   -1.69051754576348
N        -0.00952076793724    0.09321712468011   -0.73673917096980
N         2.69463991961157    1.06609757515383   -1.18886138721205
H         4.45074281892725   -1.68730742975565   -3.43399508491947
H         2.70235627248652   -2.13309893674870   -2.88743858649096
H         4.13498744762804   -1.22374919595014   -1.91134963533044
H         2.73084171775673   -0.15909927493348   -4.29824074609106
H         5.25095261752396    3.04943788106655   -1.54940969933880
H         3.78460855041266    3.19493992718198   -0.50283133102922
H         5.22437693068133    5.05378575720063   -2.72985650480578
H         2.28877951997551    4.07965934165548   -4.10770949245086
H         1.10284806895020    3.07736768758390   -1.60871273768706
H        -0.91350469749411    3.25801970010490   -2.82246709664239
H        -0.04964720714693    3.53102919948260   -4.32217650887099
H         0.67923045244644    5.51513620853554   -3.52482773898159
H         1.14790622821329    1.31890989690711   -4.06077159926775
H        -0.01475996589596    1.36699303321644   -2.62410853109868
H         1.39378505739209   -1.48439605200394   -1.33527700243915
H         0.25597536488900   -1.01867503356739   -2.49122971245782
H         0.54394534328844    0.52874388127381   -0.00298972606300
H        -0.67729237084135   -0.59728957207764   -0.38992989234203
H         2.04649689846348    1.65252666105730   -0.66707115338077
