35
 energy: -49.717310555486 gnorm: 0.112558623717 xtb: 6.4.1 (79825abcba525fcdf90b791dcacef51065a7a4e7)
C         3.44683745050576   -1.44364055118495   -2.24728791023871
C         2.95570238072258   -0.24578562475865   -3.04692182347455
N         4.13367830036276    0.65394027802103   -3.21647434211426
C         3.90370876479526    1.53189189860433   -2.28312371216056
C         4.59129228743132    2.85914322314071   -2.23032437704084
C         3.73752539255955    3.87721149062193   -2.99579238479230
N         4.28957929369395    4.96498760928214   -3.43354164906448
N         2.40255243949926    3.76351710481395   -3.34640703462057
C         1.27077777638805    3.01847429863514   -2.76168119865791
C         0.04564316349837    3.87504206352698   -3.17395380190204
O        -0.92096746970397    3.97826193254608   -2.12826957358973
C         1.07033031719401    1.53954967803194   -3.16027164362399
C         1.84329919687608    0.53680557932095   -2.25640488383936
C         0.88388289270114   -0.30667505337572   -1.36066084786723
N         0.11612412156309    0.70642888358281   -0.61993898427545
N         2.81011403739299    1.32084686289660   -1.46261315712566
H         4.00988977072367   -1.06342211123021   -1.38665807561182
H         4.11247279845838   -1.99261406418856   -2.92160219534975
H         2.65936179800459   -2.15249361693457   -1.98317221404084
H         2.58026299467213   -0.57440076361790   -4.02557998406726
H         5.54656004172972    2.80356985581851   -2.75856888909368
H         4.74009967183184    3.16477101196995   -1.19281677854675
H         5.30619562608639    5.10720363588188   -3.38390906085036
H         2.24823032489392    4.24117696328022   -4.23743528310932
H         1.33458205341109    3.03346724479504   -1.66520314704856
H        -0.26339505951230    3.62716237004767   -4.19458038956573
H         0.49945082565419    4.86080375762451   -3.33597796282469
H        -1.47690052698306    3.17637672335750   -2.15630185152393
H         1.41874512002798    1.36980879208845   -4.18782474454744
H        -0.00801770496455    1.33226851419951   -3.18527048975836
H         1.47679180080041   -1.03629922760615   -0.80970625668875
H         0.08484565808447   -0.81878095159683   -1.91108592355140
H         0.72224008994796    1.17783077347826    0.04699447059365
H        -0.73515036882497    0.32011034586893   -0.20873974067820
H         2.58755880298431    2.00999533326986   -0.74721323910727
