35
 energy: -49.721504999995 gnorm: 0.112282862061 xtb: 6.4.1 (79825abcba525fcdf90b791dcacef51065a7a4e7)
C         3.51783213227765   -1.56310194771815   -2.71610424395960
C         2.96367788782824   -0.27136240002039   -3.29903347639731
N         4.07301549705756    0.72618002729725   -3.28633695025665
C         3.86851983466156    1.47752580029473   -2.24302995385848
C         4.55142834368461    2.80435416904053   -2.14145537896743
C         3.65557004573874    3.96567432500210   -2.58877585823336
N         4.18124930666000    5.15008384588218   -2.56686179518901
N         2.32910753918917    3.81663948347255   -2.95795831814926
C         1.17623017309988    2.97434779078075   -2.58469502122923
C        -0.05708367900848    3.69146496299751   -3.19240528928041
O        -0.38263554245471    4.95056960240112   -2.60323854097873
C         1.27961964719397    1.57675350839741   -3.23455071657535
C         1.91090052412801    0.44437410516989   -2.37481058604274
C         0.90030298576867   -0.43646406233262   -1.57661678564567
N         0.06302124672024    0.38701631493029   -0.69042191594157
N         2.83454622934112    1.08002744347160   -1.41440419600644
H         3.89698697136074   -1.48453929355969   -1.69026448801927
H         4.34052852823100   -1.94085583043848   -3.33223307153043
H         2.81740282794531   -2.39359215319866   -2.82579691143017
H         2.78157846056316   -0.42187640366432   -4.37183344286771
H         5.50522528543768    2.92939317430939   -2.66040025327283
H         4.62455214108948    2.92486730636729   -1.05881808354455
H         5.17928637019292    5.20369634745408   -2.32760192507361
H         1.96343067117026    4.77037474151605   -3.00870380926031
H         1.02299479956350    3.00397948177103   -1.49740445163255
H        -0.85609924071967    2.95070607929549   -3.08526980308157
H         0.05305528762960    3.85581242568276   -4.27165440671187
H        -0.87373203792829    4.72306023058593   -1.79087718021990
H         1.87283543057534    1.75207528613755   -4.14197979961643
H         0.33440016352332    1.19130502693332   -3.64003127698013
H         1.33116148391296   -1.27041615624813   -1.02314752009643
H         0.33841788092377   -0.88163616989119   -2.40715134102817
H        -0.43144962318600   -0.18309794128771   -0.00861194669434
H        -0.68626454987215    0.86054906868804   -1.19770153701227
H         2.37155575173535    1.71917439071382   -0.77145435877673
