35
 energy: -49.715958223124 gnorm: 0.125862222611 xtb: 6.4.1 (79825abcba525fcdf90b791dcacef51065a7a4e7)
C         3.43057673065380   -1.47210813814477   -2.60342686240865
C         2.93519943368530   -0.18470315770939   -3.24582408978267
N         3.93146142803245    0.92570960031356   -3.26392241457416
C         3.79731261336334    1.61940595010084   -2.17047928024615
C         4.45283697591256    2.93986348350504   -1.91782409365392
C         3.89116200283629    3.80924968431612   -3.04919981884428
N         4.58037696764578    4.53377426511454   -3.87363396348748
N         2.52510272027119    3.87467145161619   -3.26740121737159
C         1.38436298441210    3.22581048369208   -2.59242030211325
C         0.15375110917950    4.12855868187356   -2.86677754735911
O        -1.01310663811049    3.72490998037044   -2.14986983396561
C         1.20367631168087    1.74401383476105   -2.98978977534517
C         1.86587886937254    0.50536352253678   -2.32107098031314
C         0.81120837915258   -0.34829714745151   -1.55085662076351
N        -0.08197234135100    0.54801112326937   -0.80028240314395
N         2.81642452669859    1.08729978487977   -1.35289223015494
H         3.52340620904016   -1.08894654831762   -1.58027116888483
H         4.41401295700332   -1.69904018531626   -3.02827638607722
H         2.70738504582426   -2.27554806872117   -2.75778272717040
H         2.48635526438200   -0.39452485542864   -4.22624654125170
H         5.53275023485757    2.81289127287580   -1.80677215478739
H         4.03039632841773    3.45100734036340   -1.05050070339249
H         5.58693048149365    4.59900855101052   -3.67667693291046
H         2.39120011909811    4.37706697679571   -4.14806824546132
H         1.57122584846328    3.27422044583299   -1.51107918502554
H        -0.14130888442322    3.88512356373798   -3.89259748046348
H         0.46411424923168    5.15173570442002   -2.62039811557888
H        -0.67797987138211    3.21163515180791   -1.39019473149688
H         1.46836464418249    1.63461148369283   -4.04999797015042
H         0.11007142254368    1.64177390648899   -2.98933328383307
H         1.35413629145870   -1.02555084627951   -0.89206980597631
H         0.27153971613948   -0.93048998629070   -2.30814780608026
H         0.08519779873939    0.54947665593187    0.20293668223928
H        -1.03315704933943    0.17727682859913   -0.82854578993572
H         2.46861324356950    1.61243904645432   -0.55319881984467
