35
 energy: -49.717210664203 gnorm: 0.120984611892 xtb: 6.4.1 (79825abcba525fcdf90b791dcacef51065a7a4e7)
C         3.80485221138904   -1.26434763967604   -2.61197009360725
C         3.01999427301140   -0.08847001562220   -3.17481490444041
N         3.87688420985833    1.12606986845235   -3.04630605113786
C         3.58759855838516    1.66209214809932   -1.89573125228059
C         4.15576471589653    2.98317663496125   -1.48454034766539
C         3.71711974480665    3.82053630490371   -2.69191003596757
N         4.33930408948597    4.61778970170630   -3.50241510872419
N         2.44284899565302    3.63008779750628   -3.19982071248377
C         1.17046488416587    3.01310056973704   -2.77759759337233
C        -0.04014692816210    3.78816713578091   -3.35925269500509
O        -0.03403407932374    5.09948774732335   -2.79458745061990
C         1.03109708792729    1.50206809960261   -3.06678434011164
C         1.83090327593694    0.42362216777048   -2.28115332652094
C         0.91278334950268   -0.68737894479307   -1.68363438889393
N         0.10134138327001   -0.08487676931875   -0.61449686815898
N         2.59743869712341    1.02326716506078   -1.17101537497215
H         4.82310582712619   -1.22815593004882   -3.01709651642353
H         3.35352236860125   -2.25500040883947   -2.73050508192945
H         3.98587126154458   -1.12962315625338   -1.54359324728919
H         2.65700732735950   -0.21504764031187   -4.20385960901448
H         5.22139617240211    3.14871345093574   -1.30651141300763
H         3.62274744622722    3.33232756351207   -0.59799636719264
H         5.36357957688101    4.58100941308520   -3.42688696529139
H         2.26077492954033    4.25220148400580   -3.99085117326243
H         0.99279498239097    3.15804617565026   -1.70336109771735
H        -1.02964343712744    3.34838566920326   -3.19764668512795
H         0.01727276895007    3.78435562478517   -4.45497518301329
H         0.83763478013690    5.53275028833914   -2.72148322313494
H         1.16003443828799    1.34376329379193   -4.14585104301699
H        -0.03868945388292    1.25518437594852   -3.03469007161863
H         1.46600683583536   -1.51570461047510   -1.24174784002777
H         0.35539646060977   -1.15729136503015   -2.50350198724389
H        -0.31669602757112   -0.79845739034118   -0.02251379582456
H        -0.56213899692474    0.63530604818612   -0.90454096365167
H         2.08256396977838    1.52875095343341   -0.45293206290397
