35
 energy: -49.722018974883 gnorm: 0.096503661296 xtb: 6.4.1 (79825abcba525fcdf90b791dcacef51065a7a4e7)
C         3.59861082019230   -1.29404294550778   -2.95074225964237
C         2.99016078938063    0.07383375340542   -3.22311389450062
N         4.02537337429717    1.11241613863157   -2.94822570660640
C         3.63620224620150    1.70833284151456   -1.85815344803642
C         4.11520949565437    3.08125304733161   -1.50772929184328
C         3.54398243427726    3.85468805229806   -2.70222505993466
N         4.19919766526007    4.82155151596980   -3.26393037013277
N         2.35404876701247    3.43978161061006   -3.27661200516283
C         1.13255524667275    2.95202979464602   -2.60731481216510
C         0.05823417394599    3.88072741238544   -3.23020068228268
O         0.40390422402132    5.26448345238858   -3.29483344982546
C         0.76766194471696    1.48959856780453   -2.94557405447719
C         1.75780143791155    0.46226135880258   -2.32577271504658
C         0.91063975659557   -0.68094326324877   -1.68569709543495
N         0.28521866275291   -0.35417579184973   -0.39473875967187
N         2.56309323136527    1.07901241566752   -1.25307509239079
H         3.91322040559802   -1.45714102812865   -1.91310191072249
H         4.47489046725845   -1.29058277958317   -3.60744926208098
H         3.07900957658936   -2.21821800411954   -3.21201349743226
H         2.77389676929317    0.24652151884787   -4.28618642788999
H         5.19395124038879    3.24854866496355   -1.56246102935336
H         3.80084369985063    3.46997496908322   -0.53714008824976
H         5.11424587221630    5.06735816935847   -2.86585571720821
H         2.08970444642740    4.10423091413870   -4.00773088181805
H         1.21587360575310    3.10851566830973   -1.52328063235813
H        -0.93639737515181    3.83515579849584   -2.77494372078984
H        -0.09727382112784    3.50892178354878   -4.25073836955791
H         1.26504073088815    5.38535721087538   -2.85132391022260
H         0.66250542515370    1.28614393317620   -4.01964040050112
H        -0.24013657548283    1.22796856621294   -2.59583593513564
H         1.55822580402945   -1.55698734994855   -1.66074872013727
H         0.07463793962386   -0.91524196455009   -2.35643234789305
H         0.96191614016707   -0.28850560906233    0.36167678976250
H        -0.47046756594175   -0.99899080054788   -0.15778516218801
H         1.96644624497851    1.41204765350125   -0.49852000596624
