35
 energy: -49.719844910526 gnorm: 0.115051444759 xtb: 6.4.1 (79825abcba525fcdf90b791dcacef51065a7a4e7)
C         3.65736735020603   -1.39164170606788   -2.73339833164091
C         3.06287819754476   -0.07932198246495   -3.22317793121460
N         3.98910090552050    1.07898369583094   -3.06093902276524
C         3.69603817528438    1.70847346848820   -1.95971911517369
C         4.17988542821973    3.07434650733396   -1.58899332026151
C         3.64203499313872    3.96439716372795   -2.71586905618456
N         4.33275145672502    4.83783917229286   -3.37893362756715
N         2.30782563972162    3.81709565375006   -3.05674661151033
C         1.23825970769882    2.93890424802189   -2.54418875938799
C        -0.06961888951027    3.64625660277608   -2.98434564342467
O        -0.04439563325802    5.06959120313180   -2.87512858051762
C         1.10436447061426    1.49842209761149   -3.08581113682113
C         1.90560730153466    0.43046619546239   -2.28741784588632
C         0.85564942491198   -0.63862648986692   -1.85276180152290
N         0.14865801838462   -0.12076332668078   -0.67103303290395
N         2.65964896401178    1.14413091474035   -1.23781754236109
H         3.73155166675762   -1.34941331259896   -1.64024183017640
H         4.66055610557264   -1.52906907335015   -3.15037330166319
H         3.02474832477035   -2.22035045746029   -3.05802526431235
H         2.83927634897099   -0.35706165567264   -4.26220502927737
H         5.27200204255247    3.10642351640005   -1.55867003598093
H         3.86080351239340    3.31850426783680   -0.57383435952959
H         5.32822407029816    4.96710180693727   -3.15865424695301
H         2.12639394406239    4.16252912145012   -4.00208457120151
H         1.25988205435059    3.02516007456542   -1.44935895558343
H        -0.80752092570349    3.25401447894032   -2.27704492464251
H        -0.48501592018858    3.35505265441053   -3.95726131298022
H         0.86045716081190    5.36652741988105   -2.66079807519439
H         1.34842604565385    1.58118482923476   -4.15335715339027
H         0.01839300135289    1.33699392200742   -3.05368958698702
H         1.33166392145808   -1.56982677681949   -1.54662524367703
H         0.35562167778498   -0.93399838313941   -2.78357242307071
H        -0.46057882931176   -0.91153175030466   -0.47632220468096
H        -0.50674248776274    0.59910284323507   -0.97963951674375
H         2.11015199442935    1.57591605289940   -0.49763637698776
