35
 energy: -49.719082422794 gnorm: 0.109599697182 xtb: 6.4.1 (79825abcba525fcdf90b791dcacef51065a7a4e7)
C         3.48082111277359   -1.51103784293677   -2.47193016612503
C         2.94891830838907   -0.16578406960386   -2.94400655979146
N         4.09043816044929    0.79004066216806   -3.03999356254953
C         3.82226297573490    1.66087120239909   -2.11017388004581
C         4.38349495147736    3.04667129379994   -2.15178721996216
C         3.74631709390120    3.84079128548669   -3.29839089054186
N         4.32509767916560    4.86272089123404   -3.84640339980351
N         2.48042678931970    3.51430718688146   -3.75549009938518
C         1.36233395458013    3.04318141594183   -2.91536161634001
C         0.14529292622678    3.96348390414684   -3.19192313235864
O        -0.90134070575150    3.67706374457139   -2.26403979747667
C         1.06008581769413    1.52992650580698   -2.98591039577554
C         1.86190399841568    0.56152821993660   -2.06980777284618
C         0.88084745655104   -0.32730675177989   -1.24409778154238
N         0.19244005684104    0.50787220348393   -0.24756713389253
N         2.84268095280768    1.26305464626385   -1.21804832439940
H         3.76657743882260   -1.43326522601273   -1.41619704572249
H         4.38048554812416   -1.84380313688861   -3.00014720338127
H         2.71950198623737   -2.25849069803798   -2.70442765243632
H         2.65483883062031   -0.20723617810983   -4.00160449920324
H         5.44505273235868    2.97596504969008   -2.40231234413334
H         4.15096221132764    3.62702500504034   -1.25674974291130
H         5.08446386484536    5.18503053013727   -3.23347839691559
H         2.24731946772637    3.76029315211596   -4.72040328582336
H         1.60748762046911    3.32416755015494   -1.88215962693783
H        -0.15523734291216    3.81039597467838   -4.23349561268830
H         0.44804420503582    5.01805383896800   -3.20389133359456
H        -0.96811128906558    4.36326025366207   -1.57299472006943
H         1.20574552022020    1.21590646941662   -4.02814111164152
H        -0.00505066192508    1.39917348589477   -2.75178908925816
H         1.55846283196406   -1.03919332604893   -0.77346175221598
H         0.33361970352982   -0.90924852196097   -1.99613918047892
H        -0.54270954036075    0.07629636598650    0.30713449798839
H        -0.14693785183366    1.35660352412328   -0.70305902644673
H         2.52419553521066    1.82017805550339   -0.42783695387876
