35
 energy: -49.719606792155 gnorm: 0.131298470447 xtb: 6.4.1 (79825abcba525fcdf90b791dcacef51065a7a4e7)
C         3.54671743480325   -1.41834951491987   -2.90903763651560
C         2.88239128318522   -0.07282492616637   -3.16146341136621
N         3.89638708319432    1.00428516747238   -2.96774101127874
C         3.63191205916649    1.59652730586938   -1.83896706209535
C         4.19735020398755    2.96722099564226   -1.64241317899502
C         3.54616651486394    3.90621522053988   -2.66494524512608
N         4.09159876043030    5.01886326579760   -3.04463300416013
N         2.43075211996587    3.48938058938490   -3.37212942541948
C         1.20142677396699    3.01999603832842   -2.70403936900464
C        -0.01450816218557    3.85110796277183   -3.18920636735549
O         0.21320928230989    5.16665289972617   -3.69510381536300
C         0.96198664199756    1.53417218056713   -3.05227408555425
C         1.73436170991820    0.46365154949638   -2.22924675520360
C         0.93057354131451   -0.71406514632282   -1.59583969807256
N         0.35087019096897   -0.24361047062044   -0.32811796529142
N         2.57477222054360    1.02549237290441   -1.15332762104155
H         4.39650500763454   -1.37379036262604   -3.60052389552737
H         2.96349250296141   -2.24212923870241   -3.33374662051417
H         3.91138294585007   -1.48847525280183   -1.88217391251591
H         2.63286474968043    0.09775266382888   -4.21756672541438
H         5.24983747780805    2.84927136288278   -1.91264560368275
H         4.09706360913915    3.37660615338033   -0.63527844056218
H         5.03861624875593    5.18812732315537   -2.68310137867177
H         2.26310894593943    4.07877684938374   -4.19091719729332
H         1.28414948979581    3.24137816023686   -1.63132934891538
H        -0.75050359368928    3.77828530499489   -2.38196713642211
H        -0.46674739656369    3.32855981353219   -4.04146362385792
H         0.57033292757654    5.59571942125778   -2.89433425874320
H         1.18502983602524    1.39142655142293   -4.11808158218790
H        -0.09017401275916    1.33809448778585   -2.80542115290887
H         1.57038250344600   -1.59133215674106   -1.50369613522771
H         0.06688207956960   -0.84851487061403   -2.25889402343420
H         1.10328698820913   -0.02484740464782    0.32027097799136
H        -0.22203205693831   -0.92526220396976    0.17201102914550
H         2.22487322428624    1.68278574855571   -0.45921697705988
