35
 energy: -49.722808721442 gnorm: 0.115296599932 xtb: 6.4.1 (79825abcba525fcdf90b791dcacef51065a7a4e7)
C         3.20038795034861   -1.61395498368431   -2.82263474913721
C         2.87454169802025   -0.17625627406306   -3.19990266143241
N         3.99671905649754    0.80653856939831   -3.17317683622770
C         3.88311613607290    1.62206755428133   -2.16479433419654
C         4.45207721089839    2.97609788404900   -1.88188073630136
C         3.88061337537827    3.90924378530291   -2.95612001071555
N         4.49074281937735    4.93780032998959   -3.45557802923305
N         2.60548755661542    3.65068313114978   -3.43068337972902
C         1.39302886539312    3.17692338410123   -2.73541177690288
C         0.19898285525666    4.08768580496718   -3.12193185631562
O        -0.85768988326594    4.02592574872182   -2.16376987810816
C         1.05057090709538    1.68301075455896   -2.92833438297792
C         1.88651907993429    0.57183262294296   -2.23089227652779
C         1.00507490999488   -0.37736914951495   -1.36119765399197
N        -0.13859142121363    0.29495300173666   -0.72518489924904
N         2.87365855523365    1.18969394826120   -1.32350041259631
H         3.83526225008478   -1.74008368074497   -1.93759020061196
H         3.90940633669957   -1.98900727071343   -3.56813511192430
H         2.33661393958140   -2.28116817681581   -2.78994414914024
H         2.49898146645306   -0.16667907657786   -4.23217065523836
H         5.53029657613855    3.02022066029904   -2.05555666595072
H         4.18226846419842    3.17997624572562   -0.84380036445613
H         5.50864190810730    4.88324013855221   -3.32480265743675
H         2.40767914507517    4.29845543555690   -4.19695257378194
H         1.60784638329283    3.31434998420499   -1.66698898800466
H        -0.13324211518443    3.69636838753313   -4.08895039090906
H         0.66183709569807    5.08213956724856   -3.14926320248504
H        -1.63115934698039    3.55173311250954   -2.52398313810700
H         0.95056299059976    1.46966134668775   -4.00097162416360
H         0.03368723715117    1.54466696469720   -2.53688391046443
H         1.59029270214170   -0.91015441240154   -0.61212932836703
H         0.52032609946217   -1.07762402153254   -2.05282068573536
H         0.22801184909418    1.05492841412620   -0.15735045682005
H        -0.54177867765941   -0.34376486822799   -0.03781701692019
H         2.60122801740500    1.81124721459562   -0.56474707589263
