35
 energy: -49.721450348586 gnorm: 0.113695583268 xtb: 6.4.1 (79825abcba525fcdf90b791dcacef51065a7a4e7)
C         3.45229666694664   -1.50498991358847   -2.35484072108062
C         2.76193412557298   -0.26567057839499   -2.90526929278029
N         3.80921373280143    0.74184874332668   -3.24289669498973
C         3.82316603038495    1.65827868157914   -2.31834819384554
C         4.55786750889337    2.95555376766672   -2.43853983791307
C         3.61369399993462    3.85563710407425   -3.24458484409624
N         4.03368088865211    4.73033152219355   -4.10375042473210
N         2.24009473405709    3.68458675618033   -3.28904466121495
C         1.24097314632166    3.09064605186279   -2.37970562092314
C        -0.04904207301740    3.89405401879113   -2.68797211970182
O        -0.03937098210601    5.19493146533429   -2.09969471518697
C         1.04664509397023    1.60167199162228   -2.74228588100418
C         1.92203966514108    0.61943988110378   -1.91231227695823
C         0.90155482666373   -0.00882447217119   -0.91321708293703
N        -0.04320270756710   -0.81434547979033   -1.70256561247025
N         3.03712584630836    1.30996437558851   -1.23458393029842
H         3.50588625614770   -1.28310362092818   -1.28237985087932
H         4.44314230274647   -1.48847224951224   -2.82077438680697
H         3.02379362820555   -2.45152676393107   -2.69069903363493
H         2.22988781452854   -0.47499971972169   -3.84325781402026
H         5.52251912108708    2.88555051858094   -2.94767041813509
H         4.69062777490103    3.35174699532125   -1.42988745056885
H         5.03783622720880    4.86310310114558   -4.27765074462463
H         1.80686581667532    4.08011476689394   -4.12676531770609
H         1.49253225601770    3.28636072470740   -1.32852833971217
H        -0.88082009486220    3.39252770548392   -2.18275505551235
H        -0.13620476391148    3.87150590800665   -3.78150473754867
H         0.63998434659871    5.72762373601811   -2.55530698862873
H         1.37720608667026    1.50141166208062   -3.78475771694026
H         0.04399157532095    1.25340904420199   -2.45975493559020
H         0.28983620949005    0.75545678265272   -0.43455449903017
H         1.45807354221516   -0.57396515425272   -0.15520412270076
H         0.44582922775167   -1.41995517958247   -2.35715036558973
H        -0.54347629497392   -1.33499171185181   -0.98031293612490
H         2.66905871633817    1.96876441603350   -0.55138367490390
