35
 energy: -49.722163095651 gnorm: 0.115609875712 xtb: 6.4.1 (79825abcba525fcdf90b791dcacef51065a7a4e7)
C         3.65235884814903   -1.40964218501016   -2.61245931593656
C         3.03088710985428   -0.14700724485369   -3.19126007367614
N         4.11370930106578    0.87245475610090   -3.07262061261350
C         3.74709258138709    1.57086514820907   -2.03693557418924
C         4.29395333995020    2.91604085277877   -1.67832640459100
C         3.64687223988745    3.86377932379853   -2.69538097125250
N         4.18855665641471    4.93031303208570   -3.19410797911564
N         2.42349329847668    3.52324152271501   -3.24799999114968
C         1.16694155239395    2.99401609109143   -2.68328316433459
C        -0.06364525324466    3.78142132710563   -3.20316863611272
O        -0.08812143039446    5.13444149304498   -2.74799472666633
C         1.00264997191046    1.50893475140245   -3.07547343134627
C         1.86315742502311    0.45281665988140   -2.32441207796600
C         0.88542298332378   -0.58600165261734   -1.69259849286672
N        -0.09495639773729    0.04268045867482   -0.79364519578115
N         2.68319570324867    1.10584300134938   -1.28486855308891
H         4.61629990783627   -1.63239157401874   -3.08519393647222
H         2.84249693607985   -2.14565236141594   -2.65189006443063
H         4.00787892006054   -1.29998991909307   -1.58584862023335
H         2.72161111905873   -0.37256325595713   -4.22091401993027
H         5.38077690983512    2.99144111287827   -1.76662389810011
H         4.00434773662461    3.27074458573540   -0.68722205082978
H         5.17652550708108    4.94806391041058   -2.91161900096021
H         2.21655810009892    4.31830084522326   -3.85706821327628
H         1.27836868022208    3.08545108830660   -1.59434629540182
H        -0.99215559624033    3.28180814812929   -2.90840975533298
H        -0.09472282306296    3.67150147387384   -4.29443905582919
H         0.46851939345463    5.74033144339526   -3.27327143273548
H         1.27721748386185    1.38611297390716   -4.13169201544429
H        -0.02161593771467    1.24326107465160   -2.78098792506233
H         1.43300084832331   -1.34394576621867   -1.13302494647619
H         0.50680921157144   -1.14212677534091   -2.55923403416630
H         0.34212373211054    0.38781070862208    0.05737924840618
H        -0.90560994621734   -0.57400056737688   -0.71921120208296
H         2.25801817201643    1.70217924933703   -0.57786033856608
