35
 energy: -49.722540353772 gnorm: 0.117036930359 xtb: 6.4.1 (79825abcba525fcdf90b791dcacef51065a7a4e7)
C         3.50446833380020   -1.33812926106883   -2.85963732940856
C         2.96667734165979    0.04719360390358   -3.18696877783995
N         4.01135531045681    1.08694460883861   -2.95578095741162
C         3.64823671255248    1.74339149781965   -1.89180219682676
C         4.02910877444444    3.15391331833526   -1.57161532699007
C         3.59498365122887    3.89936098222261   -2.83935558879932
N         4.37011870990199    4.72735921494921   -3.46643563584330
N         2.42021027394586    3.51684143294420   -3.46513203768296
C         1.24935852541862    2.93688398774655   -2.77908355123739
C         0.09564316999761    3.85225185324727   -3.26454663109771
O         0.19842376619506    5.10553862312547   -2.58841470239847
C         0.89662411267905    1.43923490828678   -2.91655069144559
C         1.84358961934395    0.45981674527627   -2.16558590519494
C         1.02914395133697   -0.77086280839825   -1.65922369715610
N         0.05157384428662   -0.27033495230798   -0.68028011364980
N         2.64984146691853    1.15062092433438   -1.13976695954902
H         4.42950930944240   -1.43998558513380   -3.43946676204442
H         2.85196764721157   -2.19159172673747   -3.07173814676298
H         3.78663035286409   -1.46297998560417   -1.81219064206925
H         2.68672708344357    0.09359368920064   -4.24818944997324
H         5.06865387379313    3.39800036758284   -1.33830300158776
H         3.41011973868422    3.31413453776632   -0.68665445485328
H         5.20210706692307    4.96227087970268   -2.91072937223669
H         2.35598349713239    3.74051422408671   -4.46099899420258
H         1.14634615721707    3.15488419728064   -1.70743796801828
H        -0.78967734433454    3.36497722853317   -2.84335946175319
H         0.01068609619669    3.94158877829603   -4.35483124531937
H         0.95483637285904    5.61866271442301   -2.93106743713978
H         0.82023863471441    1.25434590290745   -3.99638934968882
H        -0.12690437774271    1.37122031892153   -2.52388247871176
H         1.80551447356386   -1.40429621739220   -1.23090804072127
H         0.56735183656967   -1.24885881353536   -2.53212035707337
H         0.45338943109593   -0.38468576713103    0.24700876615234
H        -0.85937710988837   -0.73083609994189   -0.64708164790221
H         2.03859404453054    1.76750348019037   -0.60864926880680
