35
 energy: -49.721515567521 gnorm: 0.124932139893 xtb: 6.4.1 (79825abcba525fcdf90b791dcacef51065a7a4e7)
C         3.73763348707870   -1.41619964543281   -2.74017493916063
C         3.02946061815446   -0.14137425780087   -3.17468139483859
N         4.05574173697950    0.93739860520985   -3.08045728736388
C         3.78721494599763    1.60130249199336   -1.99328048201102
C         4.35059360929617    2.95929083667990   -1.71827673605422
C         3.63393254782780    3.89270406201494   -2.70136313028319
N         4.22808559711817    4.93626154156955   -3.18882057127433
N         2.41792522097003    3.59579244242684   -3.29396714062666
C         1.20482367541781    3.01405853232571   -2.68743826704910
C        -0.01889797796112    3.82721778481712   -3.18333057137317
O        -0.03961505250979    5.14083319746673   -2.62437502220061
C         1.00302497739584    1.52319078284371   -3.03795528929285
C         1.88753902088258    0.48377335771543   -2.29149832050059
C         0.94375248051730   -0.64117395635314   -1.76418714591096
N        -0.06268332553122    0.03484116678285   -0.93076498051838
N         2.76069707341466    1.05254098503444   -1.24571854481775
H         4.04907734339539   -1.40470409611066   -1.68891462147473
H         4.64730703870110   -1.42739091027548   -3.34969185426007
H         3.01624014563662   -2.22001577603497   -2.90085767997848
H         2.70626466079822   -0.24664689695912   -4.21927531671899
H         5.42235402943953    3.17216068286551   -1.74441394008420
H         4.02344853290433    3.20407268654735   -0.70583812135087
H         5.11324632724295    5.02501173435218   -2.67422222512892
H         2.19644101994087    4.29109226978798   -4.01049243527926
H         1.23998625424515    2.98008237998347   -1.59009187594753
H        -0.84961647613075    3.24162648971009   -2.77636962630128
H        -0.09005939062880    3.90636917560187   -4.27538846235828
H        -0.86076960521111    5.24633221593788   -2.10722667012690
H         1.23222562650492    1.51937557210835   -4.11197704021754
H        -0.04846216085552    1.23394763710199   -2.90704284080021
H         1.47126216877854   -1.35796321499009   -1.13538666365646
H         0.37240913443572   -1.09497267475884   -2.58352481425228
H         0.19178728775776    0.18342118672767    0.04266463857713
H        -0.93396611547720   -0.48740749089937   -0.82532435525918
H         2.22322277463978    1.57661649494891   -0.55817238739830
