35
 energy: -49.725236017327 gnorm: 0.117324089533 xtb: 6.4.1 (79825abcba525fcdf90b791dcacef51065a7a4e7)
C         3.54562619981561   -1.39309802427837   -2.64916647633164
C         2.86386241183122   -0.12171097393431   -3.13316808607641
N         3.94091236662180    0.90804931472516   -3.20691867636415
C         3.75302555124168    1.61944997181589   -2.13293726523141
C         4.21878789557860    3.01721918740572   -1.87513578862711
C         3.57026343554630    3.83840467311447   -2.99602499590524
N         4.06413127168809    4.84761501448091   -3.64196141332265
N         2.30239651042818    3.49665206941170   -3.43617094478367
C         1.13097613182413    2.91170150540155   -2.75535225068209
C        -0.03769624766090    3.80113121530621   -3.25309865395044
O        -0.00979887747807    5.14960086817891   -2.78480677818885
C         0.88817625445076    1.39902652056742   -2.95317570241118
C         1.78881628956930    0.43516601150973   -2.12869275793360
C         1.00250122394597   -0.62090687627534   -1.29160541187384
N         0.42936760125238    0.15534007544294   -0.18099274274849
N         2.71693766924825    1.23204481983651   -1.30217487600641
H         3.97774360777664   -1.33231368659670   -1.64325520203919
H         4.39641863260056   -1.55812996332526   -3.31853840600138
H         2.93964477280957   -2.29983262465579   -2.70363243256004
H         2.44384945540514   -0.29366704812711   -4.13353534210035
H         5.30259994849721    3.11267427885381   -1.97957189486969
H         3.94708710156183    3.35389478290244   -0.87273755332631
H         5.05145402177483    4.91705394742845   -3.36524930406739
H         2.09291035683207    3.92334910683616   -4.34168228441034
H         1.27300749503018    3.21441756989349   -1.70904925450926
H        -0.96644680708119    3.32281453720074   -2.92558812438082
H        -0.06531296720595    3.73194317798097   -4.34779937075906
H         0.70859182316399    5.63508778736633   -3.23323125573381
H         0.88644149381333    1.14969081210597   -4.02270779326441
H        -0.13312935810826    1.05869966793043   -2.73514510210388
H         1.73955318615389   -1.30032056753059   -0.86429427832995
H         0.19812944999203   -1.18132042316029   -1.78415328090249
H        -0.03138914830366   -0.43904238612804    0.50370371964618
H         1.10313448686656    0.74840728663193    0.30614640770277
H         2.45628854677608    1.90216119341505   -0.58157820546549
