35
 energy: -49.728115574639 gnorm: 0.109607314828 xtb: 6.4.1 (79825abcba525fcdf90b791dcacef51065a7a4e7)
C         3.67631393419532   -1.39164621400665   -2.73435557309808
C         3.07100323621068   -0.03036827083731   -3.04420356250403
N         4.10424846090575    1.02251811651763   -2.82123141960726
C         3.72417278622767    1.77146998252054   -1.82652441674056
C         4.22319657878857    3.16452464577904   -1.60851313281663
C         3.67411603821506    3.90070775910988   -2.83646557225906
N         4.31819435052394    4.62431402916497   -3.69739641453616
N         2.37950212329281    3.61545638700916   -3.23723523289741
C         1.18589794973077    2.95318423737208   -2.67633270076079
C        -0.02380701634461    3.81142790621685   -3.12873024590780
O         0.06058275842852    5.13423644792382   -2.59816272876834
C         1.00059342883306    1.44940908113290   -2.97732115995261
C         1.88228062339322    0.47416742684347   -2.14576651868151
C         0.98011757545904   -0.66840328862541   -1.58457977083239
N        -0.37063380842775   -0.22264552294593   -1.20871718093152
N         2.67659190952018    1.19466103160947   -1.13111608451937
H         4.63050487475875   -1.54580917907862   -3.25207278603107
H         2.88420834311815   -2.11202749400882   -2.96405457236720
H         3.76457639574400   -1.54636344158280   -1.65703482881709
H         2.81973229960215    0.11804882830500   -4.10323600239230
H         5.31555373568310    3.17894302708007   -1.64337136351093
H         3.74771061658143    3.50683319936893   -0.68725748693699
H         5.33365577442173    4.72750655031232   -3.57745074041203
H         2.29786028179727    4.07427687113487   -4.14757801093323
H         1.30254087650875    3.19947956622457   -1.61224016066238
H        -0.92956031641263    3.31942024478344   -2.75972209425048
H        -0.11094333021057    3.88038468440375   -4.22032154097289
H         0.99705290967566    5.39096029665021   -2.69808161141891
H         1.35242366653492    1.30286898508880   -4.00727829703816
H        -0.04235352003734    1.17330540323978   -2.77127917417277
H         1.42885953615064   -1.18277008589728   -0.73516773310899
H         0.85433797102511   -1.40462772490586   -2.38821761519425
H        -0.49889619503336    0.00479756341940   -0.22575485234362
H        -1.05289940835738   -0.96030598429718   -1.39138020306333
H         2.04393448844930    1.76437464774550   -0.57306189523665
