35
 energy: -49.728976256004 gnorm: 0.097080727476 xtb: 6.4.1 (79825abcba525fcdf90b791dcacef51065a7a4e7)
C         3.71596743296039   -1.35146026240325   -2.54511939390073
C         3.12130719082612   -0.05277400517466   -3.06978848076868
N         4.15651548106447    0.99484436854674   -2.83162562095139
C         3.74474141123546    1.67478436860681   -1.80062991560249
C         4.18838661224611    3.08867833249738   -1.59755910648022
C         3.63166817684823    3.73129122724680   -2.87366077099293
N         4.27512144801461    4.36903499463997   -3.80042697225136
N         2.25660730651953    3.82426864729507   -3.00994229251070
C         1.09011546292129    3.00153607339200   -2.63535604914605
C        -0.10269638758926    3.87523579720284   -3.10277503155505
O         0.02045159020350    5.22706180513704   -2.66022902163835
C         1.10408404655696    1.53624096942086   -3.12421865635339
C         1.89628084895468    0.51289634356788   -2.26100276344405
C         1.03483799076216   -0.68351598972040   -1.75030687864629
N        -0.14919272929150   -0.21107112100319   -1.01588937377604
N         2.60227730621654    1.21463798467147   -1.17073462559961
H         4.58838852125139   -1.61597621441981   -3.15437339578351
H         3.01085241289357   -2.18665607783659   -2.47876550985559
H         4.03101227963933   -1.29561928834050   -1.50110014260585
H         2.88525717255184   -0.24764497072616   -4.12478616511173
H         5.26608105063264    3.22196185205608   -1.47315115294138
H         3.69534533112673    3.61734694412386   -0.77939420571428
H         5.29858344366272    4.32506894075959   -3.71802493633055
H         2.16526331304961    4.34058486180171   -3.88799664453731
H         0.99742236756826    3.00492501777877   -1.54084410824282
H        -0.99828671087622    3.45832918087137   -2.63082753341189
H        -0.24731199518488    3.76400028937610   -4.18473266201439
H         0.96183564925389    5.48037995433788   -2.61029678700135
H         1.43532847994918    1.47964920994336   -4.16975426223216
H         0.06482349989846    1.18078962110804   -3.12830791877515
H         1.54702196822924   -1.32577835410619   -1.03433901182840
H         0.73389127959224   -1.32608692553144   -2.58709500889611
H        -0.58114875890783   -0.86690444942123   -0.36959751303726
H        -0.83940143557662    0.20490732384836   -1.64324011994923
H         2.07430796034522    1.75881869760069   -0.49149298873962
