35
 energy: -49.724128599345 gnorm: 0.122774110080 xtb: 6.4.1 (79825abcba525fcdf90b791dcacef51065a7a4e7)
C         3.69201611107439   -1.37100734925053   -2.63568537960285
C         3.02023970625682   -0.08409260014307   -3.09181181988693
N         3.99903099033598    1.03121131637227   -2.93706428346598
C         3.64715321399064    1.72808445228559   -1.89524938795618
C         4.24890642912825    3.07423646986972   -1.64440534740842
C         3.67337808049973    3.91483796617318   -2.79047621208148
N         4.44930909520299    4.66517317918177   -3.50781359872039
N         2.37800523609761    3.69690247105151   -3.22925078783872
C         1.24531084344795    2.99184850496382   -2.59852956350873
C        -0.08106144914626    3.68795083785694   -2.99954066440315
O        -0.05595167482448    5.09427034347843   -2.75442660974725
C         1.01544299502358    1.53399732724677   -3.05471180902222
C         1.83641835903682    0.49789463755677   -2.23468598590707
C         0.96941216587613   -0.63961842087511   -1.61125927395892
N        -0.26176373734578   -0.02002084774003   -1.09666553066833
N         2.64074352007405    1.12150256234425   -1.16523232362680
H         4.61655691401327   -1.49605596496331   -3.21176248393277
H         3.12545993836905   -2.28583959077488   -2.83875716314850
H         3.98397614070660   -1.49163459786810   -1.59043131124915
H         2.66808458506485   -0.12156620923672   -4.13166609726362
H         5.32972763559547    3.15658253432232   -1.78480398729008
H         3.84372540454739    3.51624385054147   -0.73202833429190
H         5.36713825351824    4.69651131164434   -3.04650553944835
H         2.21686253895449    3.81912605351471   -4.23174767495871
H         1.39437710802408    3.07201361744427   -1.51321270813351
H        -0.94614767363345    3.21566702992555   -2.52288416725242
H        -0.12812867607691    3.60755921024154   -4.09281153371547
H         0.75669248327071    5.47547479836696   -3.13804086360683
H         1.38300633431232    1.44961300734458   -4.08614124887530
H        -0.05123565856576    1.27382876276531   -3.02415313593890
H         1.63424730521987   -1.25198459955014   -1.00261713031187
H         0.63335206083629   -1.18946159056797   -2.49918765627461
H        -0.27961164352097   -0.01674250678220   -0.07977456147809
H        -1.04465931211418   -0.58821684678581   -1.42411462984085
H         2.14020117172326    1.59726706702304   -0.41732927574098
