35
 energy: -49.727358321081 gnorm: 0.113484319656 xtb: 6.4.1 (79825abcba525fcdf90b791dcacef51065a7a4e7)
C         3.60383382924946   -1.49737979326809   -2.60098111759627
C         3.03720747022067   -0.17834475189587   -3.10552602246568
N         4.01765172285694    0.94162242604627   -3.00411309676427
C         3.77163427388228    1.62929308331459   -1.92642442074349
C         4.19374682358186    3.04656430810408   -1.70210728845178
C         3.60177997115208    3.92845720499758   -2.80807398207200
N         4.15972273888548    5.04425212242205   -3.15928100016612
N         2.41371151187217    3.59589218094539   -3.43728275247964
C         1.24929360545209    2.96427432192969   -2.78682384425408
C        -0.00671561337484    3.73961639257255   -3.26213148527445
O         0.04348462122077    5.10997041182315   -2.86456921522588
C         1.04250932518670    1.46264314520873   -3.08450755772510
C         1.85214387734824    0.42001121135262   -2.26148738373774
C         0.99431238166593   -0.68939040224548   -1.57763818779744
N        -0.03033282829003    0.01507160115565   -0.79129382546124
N         2.60999781560439    1.23196061476563   -1.28888648646277
H         4.47317684972074   -1.84951951162425   -3.16888780688126
H         2.79720205829111   -2.23057149692643   -2.70546649109476
H         3.71561833255360   -1.44561755068338   -1.51600528383588
H         2.81768116387863   -0.29998184232347   -4.17497776589452
H         5.28253880869987    3.13720086506999   -1.73347859269016
H         3.92663891236059    3.30874313681178   -0.67649058872412
H         5.05518098646389    5.18274262272138   -2.67433515278993
H         2.15869704543578    4.24687132148082   -4.18367365188215
H         1.21841069170700    3.18113459597922   -1.71045134903235
H        -0.89572146853589    3.26136646207478   -2.83837071678068
H        -0.05395554117287    3.61832682492896   -4.35161602500392
H         0.98251925866973    5.34007137591097   -2.99923457171303
H         1.16106495249919    1.21861524751547   -4.14868101550806
H        -0.02322809446681    1.29504415701953   -2.87825721497286
H         1.61229480377575   -1.40258736711032   -1.03276098634529
H         0.33326867337528   -1.19505535764425   -2.29248423672635
H         0.25647374915560    0.37412963648424    0.11601860753855
H        -0.78540157219328   -0.66143939105655   -0.66800896716122
H         2.11671921558017    1.65297379222943   -0.50423523174838
