35
 energy: -49.728536805081 gnorm: 0.108863362924 xtb: 6.4.1 (79825abcba525fcdf90b791dcacef51065a7a4e7)
C         3.54007125390631   -1.50876189498512   -2.60264098606474
C         2.96840181861497   -0.17990409428027   -3.07467427508182
N         4.01644217616067    0.88019176981663   -3.13542094672691
C         3.80497747733946    1.59127116357368   -2.06561854528604
C         4.34890820699744    2.96865114788739   -1.85557413940860
C         3.61866634002085    3.91108588462353   -2.81987996960055
N         4.04322080436885    5.10457955518711   -3.09368859322327
N         2.44277387615272    3.56050569760751   -3.46204838409442
C         1.27995393398050    2.94413921023656   -2.79432906488272
C         0.04235099924836    3.81834674803926   -3.12407439156245
O         0.17453066352302    5.07799659310979   -2.46509278184488
C         0.98139027035418    1.44764028079557   -3.03437529690187
C         1.84776473042203    0.47398161090009   -2.18506043158357
C         0.97628835078833   -0.60276283178205   -1.46711415958009
N        -0.40357255834699   -0.15783081693383   -1.21707150607628
N         2.74591525972750    1.20065135886509   -1.26591212061724
H         4.43945458163090   -1.62782815375047   -3.21844171525688
H         2.91104002054036   -2.40413849211993   -2.56065853480979
H         3.94524947781751   -1.22937104372380   -1.62790049495866
H         2.61440495932541   -0.33105984605072   -4.10353411369407
H         5.42420497258759    2.90727551754733   -2.04168438435702
H         4.04799789328837    3.24465966532570   -0.84302968278341
H         4.98919696874127    5.32366719725979   -2.75704744436517
H         2.19768224866075    4.39398678116031   -4.00162690048195
H         1.42367398728512    3.15714737980250   -1.72637216070970
H        -0.85881051006224    3.34095661180977   -2.72578532210114
H        -0.04578314394548    3.78558824834292   -4.21727088942271
H         0.95785163415544    5.54826072987233   -2.80878909983046
H         1.25606919178649    1.19937448792595   -4.06829298764275
H        -0.07364314265522    1.21098575046239   -2.84118113971482
H         1.50333632475563   -0.85883314244224   -0.54836948333544
H         0.94864794693732   -1.46377991242951   -2.14650086834353
H        -0.49348730059262    0.46636304413510   -0.41914049597498
H        -0.90774851850785   -0.99379433975416   -0.91712705471218
H         2.27985515444353    1.91980640479319   -0.71649654454826
