35
 energy: -49.716261007289 gnorm: 0.111523386333 xtb: 6.4.1 (79825abcba525fcdf90b791dcacef51065a7a4e7)
C         3.34894507072804   -1.42275604857638   -2.89520176825256
C         2.79086722800960   -0.01900985264451   -3.07831421710247
N         3.91574402853358    0.96105557044403   -3.07587396161346
C         3.83241437319926    1.63531335917193   -1.96535109870580
C         4.45143563650306    2.99431872170308   -1.88125568446426
C         3.92517870047343    3.78983827328660   -3.08189072046307
N         4.70006130156780    4.42981632080057   -3.90019987733869
N         2.58315518172503    3.71359935547292   -3.41531292584802
C         1.46047804190240    3.28362986244100   -2.55937527111399
C         0.29931248558866    4.22563319044457   -2.97041799879629
O        -0.99867762339229    3.76004433551444   -2.60042522449972
C         0.99052340179756    1.82764363117421   -2.77272537506651
C         1.77430735245243    0.66805827781459   -2.09375836846442
C         0.95265471156368   -0.45517739275843   -1.38840376716002
N        -0.14620587356340    0.04833627373095   -0.54966580603750
N         2.78866025483373    1.20567685161214   -1.16552811839771
H         3.59111293244086   -1.66575968452117   -1.85376927569519
H         4.18147025360231   -1.47429427655897   -3.60469997981931
H         2.66996004079247   -2.16718043650499   -3.31610475315258
H         2.32073522186588    0.04175389498224   -4.06927238519293
H         5.54399300056027    2.99503756878048   -1.91264087689924
H         4.07025898012383    3.57439174837402   -1.03852580443732
H         5.70098876937448    4.36024075605307   -3.67771164700485
H         2.37135463551304    4.27182632496695   -4.24563140563725
H         1.87174614319855    3.34945333821596   -1.54296703050444
H         0.34744288809789    4.26167529290031   -4.06358405756301
H         0.41220587760821    5.28746889839451   -2.71807034514616
H        -1.55435301356609    3.61549742687061   -3.38985432970242
H         0.88212965412754    1.58376883783472   -3.83801692477486
H         0.03543454598617    1.84134366471098   -2.23046854707466
H         1.61135407525072   -1.11834585817055   -0.82825549093716
H         0.63382491502371   -1.05280327713170   -2.25146319295487
H         0.22550342920442    0.56201831907316    0.24554453524678
H        -0.75806836149973   -0.63582107063223   -0.10183982978991
H         2.45306645039269    1.65031474887270   -0.31351437683755
