35
 energy: -49.727028648467 gnorm: 0.107392129389 xtb: 6.4.1 (79825abcba525fcdf90b791dcacef51065a7a4e7)
C         3.57441177494861   -1.39174052217236   -2.30867272877073
C         3.02739973965827   -0.14401958457277   -2.98650364613173
N         4.08523162867025    0.90531199697035   -3.06250979471242
C         3.77289311594939    1.76140244184086   -2.13278820703850
C         4.29425471955473    3.16009718989504   -2.03797248357684
C         3.65187732934353    3.73324262520723   -3.30690029125702
N         4.21767825443777    4.32465823629290   -4.31175932831403
N         2.26940792998424    3.76796888729207   -3.38161489756906
C         1.21023958831065    3.03964890408824   -2.65661878428676
C        -0.07747009540496    3.88749403453395   -2.82273383132766
O         0.00211894241359    5.15390853507979   -2.16828303193697
C         1.00672269280033    1.54749787118445   -3.00062119982216
C         1.84066172996365    0.51393022494534   -2.19053770772885
C         1.11728956578285   -0.60239520089717   -1.37515632296008
N        -0.11710738497162   -0.20985179002654   -0.67753479061857
N         2.74737646341033    1.29764842287991   -1.32844076851771
H         3.82879175063035   -1.09236847666854   -1.28498093245199
H         4.37395493155227   -1.79617293960088   -2.93820211229832
H         2.82282206689532   -2.17952272275143   -2.22584890924620
H         2.71547519923763   -0.36284664253105   -4.01681050726648
H         5.36521090935129    3.35274577965112   -2.14096033538259
H         3.91176776312351    3.71043854958318   -1.17611280130120
H         5.23965495972938    4.42248806064789   -4.26495655895647
H         1.92198401713811    4.16734649800800   -4.25665760369122
H         1.43231092866841    3.16126496594178   -1.58776251158655
H        -0.91030987449834    3.45901359099890   -2.25580350031471
H        -0.40353551987821    4.09715338863943   -3.84920526839310
H         0.83450477589760    5.54127148870831   -2.49987167349763
H         1.20316234386849    1.36756868470864   -4.06603527532137
H        -0.05440575852975    1.29143736040835   -2.87870203402439
H         1.78683368965039   -0.86412494300167   -0.55622313201176
H         0.92244384697089   -1.43396208779790   -2.06378711282327
H        -0.94429708804669   -0.17322983705401   -1.26813834846852
H        -0.30019367678332   -0.79955740990058    0.13592803841595
H         2.32252150126257    1.86121674654603   -0.59485880779277
