35
 energy: -49.714981444844 gnorm: 0.114108388371 xtb: 6.4.1 (79825abcba525fcdf90b791dcacef51065a7a4e7)
C         3.43106717879299   -1.50564812942286   -2.59360039385935
C         2.99948064663145   -0.11312359002840   -3.02959686505779
N         4.16978869674255    0.81039065999531   -2.97143752885536
C         3.98158113058907    1.67649764229084   -2.01788363012256
C         4.54122501451498    3.06267239200195   -1.96815198926767
C         3.84376580694758    3.76862550316940   -3.13712719698641
N         4.39878241113085    4.41505265172019   -4.11371990145063
N         2.46927818062818    3.68294868558829   -3.28359584220074
C         1.24752157189999    3.12761367862656   -2.66973855986131
C         0.03621489977388    3.89585118760665   -3.25895762446451
O        -1.11123235124964    3.59643494101074   -2.46387229745928
C         1.01962969248837    1.62784525117604   -2.96134015423916
C         1.94174705206552    0.66331614193729   -2.16175597023649
C         1.04090193458178   -0.23378442998011   -1.25733061417865
N        -0.01061480953055    0.59068716927394   -0.64165122757807
N         2.88405945263171    1.33764454684045   -1.24694150910618
H         3.76915352526904   -1.52955730703405   -1.55081390778861
H         4.25633595464842   -1.80598842041453   -3.24771754015479
H         2.53521074025488   -2.10806892459105   -2.75754580809910
H         2.56124183750627   -0.00814627645871   -4.03141568089882
H         5.63359749639516    3.09439961626926   -1.98771916944177
H         4.10747708816644    3.60247107626336   -1.12408201053062
H         5.39202368963514    4.23432663971607   -4.30609305619993
H         2.18938399552908    4.38901376472799   -3.96845856429724
H         1.24633358249086    3.29632582200101   -1.58433785815172
H        -0.26687281546513    3.64216195736826   -4.27994107282075
H         0.24466358556565    4.97157126094218   -3.20155727893495
H        -0.96273500388558    3.99456867784746   -1.58506325857643
H         1.09684184255115    1.45726655407919   -4.04347295674468
H        -0.05652557080921    1.46461470610176   -2.81413108679082
H         1.60374961073827   -0.67317718814318   -0.43417822020215
H         0.62830655643304   -0.98570824749156   -1.94147704861477
H        -0.85519843545342    0.05365333677452   -0.46090360787756
H         0.39381278111000    0.79163997515867    0.27434625253283
H         2.52712479794920    2.05336908109081   -0.61718795894219
