35
 energy: -49.726600786576 gnorm: 0.108334587238 xtb: 6.4.1 (79825abcba525fcdf90b791dcacef51065a7a4e7)
C         3.70829214085814   -1.45717389561069   -2.43511395081782
C         3.07058227661585   -0.25647556182282   -3.11858603963944
N         3.99635023337236    0.91347593554845   -3.11157193760153
C         3.67450684475126    1.64965108012111   -2.08722268134187
C         4.21827294587337    3.01404164108193   -1.80453603635097
C         3.65484874908809    4.01025352009277   -2.82504436021883
N         4.28938191104757    5.04765050741887   -3.27317375332608
N         2.37879967335869    3.73693218688830   -3.28872965166053
C         1.30805490701032    2.93442509442572   -2.66631901483267
C        -0.05566556231521    3.62865584833407   -2.91720143178626
O        -0.12936258262392    4.88515421257063   -2.24323810049486
C         1.20880329919041    1.51658327880666   -3.27141840928919
C         1.84813336725286    0.40914850505529   -2.38553070992271
C         0.78047013882305   -0.57385936280030   -1.81274161328821
N        -0.29671304232843    0.14441204659301   -1.11398231142787
N         2.63100608616132    1.11584533211933   -1.35245429955799
H         3.61850479748454   -1.35304670288838   -1.34728425585720
H         4.78336974231455   -1.42714705435119   -2.64114458895638
H         3.33311943454165   -2.39678929267757   -2.84586450013126
H         2.83603655154629   -0.41678844604685   -4.17971869466087
H         5.29012224841209    2.86476301147310   -1.95790520856021
H         4.00259324137437    3.25669419771103   -0.76214647881534
H         5.17146877327368    5.24486264092895   -2.78406465984574
H         2.04583517484479    4.38689364920215   -4.00468379498411
H         1.51380877231860    2.85254504045539   -1.59043756317990
H        -0.89700849723595    2.99017945397660   -2.62890027863340
H        -0.10810744234041    3.95989203739090   -3.96192712345014
H         0.72688756489676    5.35039156622112   -2.30030955346268
H         1.58280355599123    1.52216847798489   -4.30397002108752
H         0.13066963673720    1.32355687819576   -3.35384111036910
H         1.36694791722735   -1.22770808525408   -1.16778499862577
H         0.37522276632644   -1.05158539180683   -2.71342642320502
H         0.13202398343569    0.75879683695890   -0.42615062211592
H        -0.74082210063164   -0.60371204519879   -0.57912478196695
H         2.15058423337993    1.60709159047823   -0.60137145606883
