35
 energy: -49.722431390968 gnorm: 0.119962274906 xtb: 6.4.1 (79825abcba525fcdf90b791dcacef51065a7a4e7)
C         3.76529700846715   -1.41055644479130   -2.82472160076753
C         2.97962572869903   -0.16982326746813   -3.22320155285807
N         3.94454337169194    0.96174131706660   -3.10329514262590
C         3.71196341122519    1.60203654025876   -1.99390025566027
C         4.26894910255524    2.95141259190173   -1.66816085491406
C         3.57947990732521    3.88763213394489   -2.66788451715243
N         4.07627856938556    5.00228853966335   -3.10420666470532
N         2.38017044484937    3.64866737646064   -3.31793260425667
C         1.23638590632603    2.90277658106714   -2.75819084988398
C        -0.02046217148518    3.69320249980547   -3.20561862916098
O        -0.03772830344469    5.04014319083188   -2.73243936607413
C         1.07349836363326    1.40224691018923   -3.08705235843417
C         1.87006423811131    0.36505280134267   -2.24463744357367
C         0.90393277735077   -0.65472055362168   -1.56570528860427
N         0.16001902262740    0.16984862183332   -0.60072861174816
N         2.66664111328410    1.09813062281543   -1.24083510324446
H         4.47009629610118   -1.57482029214032   -3.64846490899603
H         3.18734925198823   -2.32743908124936   -2.66837358900089
H         4.26574951665981   -1.33326169553763   -1.85729177140443
H         2.71030400977769   -0.27229463956167   -4.28323921527545
H         5.32982577354193    3.09036100129464   -1.89154656348397
H         4.07849222107583    3.29625424148561   -0.64993474321045
H         4.99318747762408    5.28605861579272   -2.73685102769807
H         2.20304030634765    4.17293520303688   -4.17797548183006
H         1.22386418203250    2.99196546765591   -1.66345414989313
H        -0.91384616789740    3.25729894791168   -2.74683684512107
H        -0.13196688801470    3.66487067118935   -4.29680300226306
H         0.82861138882122    5.39555474909309   -3.00813017770953
H         1.02587142571233    1.18873857335988   -4.16325683108405
H         0.01452977290878    1.34325916452761   -2.80151626905425
H         1.38852878177060   -1.51597428268830   -1.10651895969440
H         0.17144357993843   -1.00151919871927   -2.30521254824045
H        -0.19149664856661   -0.31902433881713    0.21892771858782
H        -0.69383773880308    0.52404404956012   -1.03485914172627
H         2.22797829495462    1.73322374162744   -0.57714455098823
