35
 energy: -49.714914039880 gnorm: 0.109656462612 xtb: 6.4.1 (79825abcba525fcdf90b791dcacef51065a7a4e7)
C         3.45888161635274   -1.45503210291481   -2.45619462798285
C         2.91272332108672   -0.11805707655101   -2.93545797447902
N         4.11161289190865    0.75777212751436   -3.08198107955295
C         4.01621082688600    1.67804936911781   -2.16611172372745
C         4.64129068037792    3.03511050390157   -2.23550344610768
C         3.73324133025708    3.72647055985333   -3.25960786539874
N         4.30493710378757    4.18102860124878   -4.33020851660934
N         2.38383852675022    3.99200349937792   -3.09646930864216
C         1.33275308208660    3.17451554579435   -2.46019905773484
C         0.04209547974277    3.90415414540064   -2.91458031942816
O        -1.14002746352886    3.20826173223252   -2.51864463820436
C         1.24718341699643    1.70759508902137   -2.93674263044553
C         1.98206598203067    0.72115955525479   -1.98445890942064
C         0.97806689466973   -0.20116284962340   -1.22577333905495
N         0.01669560281764    0.60509963069939   -0.45752335713473
N         3.00615977342484    1.48187845117361   -1.24142753285077
H         3.98926630640165   -1.50194178848677   -1.49767011460774
H         4.08753393135059   -1.86526148990343   -3.25347136892404
H         2.70201661865559   -2.24200863481997   -2.46927068696313
H         2.36235562031772   -0.24704328557362   -3.87735626233140
H         5.56563689006008    2.91447646420425   -2.80620360577136
H         4.79566069746994    3.57532713540823   -1.29938919669726
H         5.31691009920223    4.01343878425528   -4.39362678717332
H         2.07895624634780    4.69953863928478   -3.76903634891354
H         1.32113921306842    3.34532220815415   -1.37518749196143
H         0.05901739829317    3.95291717410313   -4.00818144334417
H        -0.02256597369101    4.90427691142076   -2.46793427870305
H        -1.88270678336301    3.84065744060405   -2.48162629248357
H         1.67433605038613    1.62981566790059   -3.94548502051824
H         0.17936056907809    1.45674730963690   -2.87969313494104
H         1.43551658140734   -0.88936000601651   -0.51544396559018
H         0.47435907271910   -0.76143904268376   -2.02330060170138
H        -0.50106213130737    1.06149038571395   -1.20453804884624
H        -0.66370220276123    0.00466736496526    0.01102227229025
H         2.71056125210484    2.35238549237661   -0.80428625052342
