35
 energy: -49.721132831767 gnorm: 0.114408820776 xtb: 6.4.1 (79825abcba525fcdf90b791dcacef51065a7a4e7)
C         3.38169935882966   -1.41406079910549   -2.92120008626577
C         2.85095780695663   -0.01255935958272   -3.18500216458763
N         3.98971023534796    0.93223118428009   -2.99396362586749
C         3.73700075499756    1.70941909206617   -1.98058053727715
C         4.43923163850428    3.01367259532889   -1.77333791638565
C         3.93429904060306    3.81460532705681   -2.97951866140449
N         4.62532975685357    4.66235958220811   -3.67481288375658
N         2.66323938210916    3.52520473528612   -3.44713437758788
C         1.42402768813222    3.11057880359427   -2.76131614408454
C         0.31496962779516    4.14854404692738   -3.07316575191147
O        -0.83618609176139    3.70819697110501   -2.35248488045546
C         0.96931877613423    1.66070671456339   -3.03949273968279
C         1.73530495609579    0.56800623647890   -2.23997884172354
C         0.85701041777610   -0.47220421005366   -1.47783880607421
N        -0.03415964246341    0.11276662164209   -0.46387283001868
N         2.62029124589400    1.27216156353631   -1.29102075292005
H         3.63797213006704   -1.61001156965119   -1.87324720829523
H         4.31963425912446   -1.56249142188737   -3.46653351459806
H         2.65461109552952   -2.12502292101325   -3.31897286226977
H         2.66995131875154    0.11386444848555   -4.26109141535113
H         5.52136410363255    2.86957315096013   -1.82711345774645
H         4.07695942389600    3.32287519543896   -0.79092935431397
H         5.61048478651520    4.81360041204576   -3.42422690202413
H         2.44386929677009    4.28887939784527   -4.09101587114994
H         1.54437146299202    3.24677135075890   -1.67802078216644
H         0.10045976721388    4.22575222683241   -4.14398413169170
H         0.62042762879468    5.11618709613400   -2.65569519907425
H        -1.56189957142189    4.35718134108987   -2.28158712331554
H         0.97669519342183    1.38949503040580   -4.10366377495395
H        -0.08267006304418    1.61782382149218   -2.72659435382144
H         1.64327147531119   -1.11268133361363   -1.07905821842261
H         0.17499564345589   -0.86448908027067   -2.24246232904200
H         0.40492257800043    0.74153789896696    0.20414664291209
H        -0.55293248500640   -0.59179666799580    0.06287225788264
H         2.22458569788290    1.94226333190291   -0.63479349576793
