35
 energy: -49.730599852735 gnorm: 0.115853386033 xtb: 6.4.1 (79825abcba525fcdf90b791dcacef51065a7a4e7)
C         3.73372809722649   -1.33927342684543   -2.75283275035737
C         3.04939921868533   -0.02820814968943   -3.11100346431995
N         4.02936342730667    1.06275354387489   -2.83649529409746
C         3.63145712640260    1.69746172235366   -1.77176785259010
C         4.04864980132256    3.12919702788775   -1.65670607419942
C         3.65412100793088    3.84392227346297   -2.95471880037976
N         4.48892215231029    4.52559467080230   -3.67449278616416
N         2.41141647511735    3.51314280945180   -3.46880073270652
C         1.27356572684781    3.02093728510948   -2.66821571484442
C         0.04608924876188    3.85537827814781   -3.11726086838330
O        -0.00149134018861    5.14311332273021   -2.50250848534870
C         0.94363174900064    1.52747728061306   -2.88499279730368
C         1.86254828945748    0.47103316150614   -2.20715071694575
C         0.96012452247121   -0.71210981381966   -1.73800191484868
N        -0.19538854513844   -0.11649641047902   -1.04913603318891
N         2.57476768807957    1.12156041906592   -1.08951269435063
H         4.67822162591704   -1.36586804790525   -3.30916213266885
H         3.06568944334931   -2.14485492803376   -3.07517554938185
H         3.97081659691874   -1.40973418266944   -1.68926705427374
H         2.78578284559745    0.00303271778513   -4.17695132014783
H         5.12755835715522    3.24157356604606   -1.52256071089522
H         3.58600493881457    3.57617629562944   -0.77458178694269
H         5.35379813793810    4.66534027902094   -3.13722352113934
H         2.16412617978690    3.87846403393623   -4.39145641191434
H         1.48644562931396    3.20251684346878   -1.60601474971478
H        -0.83865365548846    3.29542567222626   -2.79740048017481
H        -0.07732583530107    3.91946301146021   -4.20564553754198
H         0.83509075703613    5.59456936741663   -2.72428561291114
H         0.80555521340636    1.24185181780953   -3.93638385637772
H        -0.04533082693735    1.27757504282108   -2.47765169784837
H         1.49989599327411   -1.24533600941908   -0.95585106899972
H         0.66727154619366   -1.40772854503880   -2.53426343856185
H         0.08498837379761    0.16644409010189   -0.11333156838481
H        -0.85025198013221   -0.89287786949988   -0.94245520411405
H         1.95466464353765    1.61098099475447   -0.44748995819842
