35
 energy: -49.720532009166 gnorm: 0.118026314258 xtb: 6.4.1 (79825abcba525fcdf90b791dcacef51065a7a4e7)
C         3.47294966590949   -1.50432816953244   -2.59835536429944
C         2.91741916692692   -0.20740638396257   -3.16832393773585
N         3.99107248221199    0.82851713487121   -3.17193137682524
C         3.82693569865383    1.54761132171745   -2.09918207949088
C         4.37786920094780    2.92889703177981   -1.93894182191246
C         3.84773877508558    3.86977678543000   -3.02753226341903
N         4.52202119014316    4.75831315567270   -3.68744977134547
N         2.50713245893499    3.78793748011429   -3.36529970234406
C         1.39196593188646    3.11112832217415   -2.67519830796739
C         0.12985804232346    3.93968690444099   -3.02904315021950
O        -0.70137298430051    4.03050259291543   -1.87178196636956
C         1.23707846404873    1.65158815455886   -3.15688689140164
C         1.85836614678863    0.53351516924547   -2.27152477270679
C         0.76423003034180   -0.30963197004406   -1.54608313007457
N        -0.20554677524236    0.56405881312041   -0.86733477719482
N         2.75209720026802    1.19726840864200   -1.30186846165110
H         3.92562526447608   -1.54142871582574   -1.60036437112665
H         4.20137183260478   -1.89041638057980   -3.31910436246976
H         2.70158480736175   -2.27020995464000   -2.49458152965903
H         2.66763075025794   -0.41948132075156   -4.21682018091983
H         5.47035614700529    2.96049980989576   -1.95080157706104
H         4.05685540735940    3.47404809567941   -1.04914721167064
H         5.52920027770967    4.73111848152215   -3.48484598723338
H         2.34849609445588    4.59730103585076   -3.97000684324357
H         1.52493099505854    3.20830711333508   -1.58917968642166
H        -0.44823021464229    3.64377275146785   -3.91044905273647
H         0.36379650348732    4.98463851110285   -3.26835103431882
H        -0.95673943365436    3.09010080947210   -1.81433873084156
H         1.76307671383904    1.56492660768940   -4.11703574714760
H         0.18701067564725    1.34932624696297   -3.26833304500717
H         1.22083103744903   -1.06527368157271   -0.90736216734466
H         0.03277320762885   -0.76830635980885   -2.22303912285948
H         0.25501534215076    1.02050698716529   -0.08379528386134
H        -0.84401553733336   -0.06131660728053   -0.37310981906635
H         2.38823287567817    1.77029874642990   -0.54325627557632
