35
 energy: -49.725328847887 gnorm: 0.102500009697 xtb: 6.4.1 (79825abcba525fcdf90b791dcacef51065a7a4e7)
C         3.25383601949261   -1.48979965611524   -2.01099538068701
C         2.88014339006001   -0.36021634702307   -2.95961534394571
N         4.03709261299166    0.52029089295023   -3.29436526423335
C         4.00336043543554    1.52817213160692   -2.47103910815062
C         4.71683356110307    2.83582323310422   -2.60579671024458
C         3.78916051778659    3.90074096797570   -3.20303629181368
N         4.34663102270014    5.03011785325084   -3.50861655312438
N         2.43194014222754    3.78495841449922   -3.45315045326399
C         1.37986062219699    3.06391544637202   -2.71076731802214
C        -0.00592533877797    3.70628546723743   -2.97833018487089
O        -0.91958053369088    3.42928416778451   -1.91675096854380
C         1.24654047458588    1.59319336929809   -3.16405961072615
C         1.93536807856074    0.61708493088017   -2.16772603078793
C         0.81647658827952    0.00597640570287   -1.26832356613254
N        -0.22352948961880    0.96086371922695   -0.85470591940870
N         2.99257082195552    1.42800650457999   -1.53189151757059
H         3.45845860362891   -1.13708756831913   -0.99315380805213
H         4.14281548573518   -2.02184734621137   -2.36565415991238
H         2.51353183756782   -2.29144649751323   -1.97025557845634
H         2.54844083807770   -0.74175055759470   -3.93486889624400
H         5.46552230163768    2.73017838663195   -3.39508213687488
H         5.16000725135325    3.20005305688537   -1.67686845273900
H         5.33765943361198    5.25141853921957   -3.35023015545859
H         2.18805176555089    4.62512825444643   -3.98280949846342
H         1.61428510340649    3.21215071318242   -1.64792614049924
H        -0.33286615062272    3.43464260023301   -3.98726400760133
H        -0.02099296117935    4.80263264870958   -2.93691568250607
H        -0.70664543539227    2.55193120212222   -1.54556681010333
H         1.76662924886933    1.45546800932443   -4.12145692854072
H         0.17615051187236    1.35162117639472   -3.21236172689721
H         1.23635549144830   -0.54827747277109   -0.42930764868413
H         0.33004566099699   -0.71589109483760   -1.93613565457385
H        -1.12013543235557    0.50121893121295   -0.71606612995469
H         0.06809471179065    1.35112007837717    0.04287437586533
H         2.79816926239070    2.19186156810581   -0.88769670227032
