35
 energy: -49.724168159926 gnorm: 0.107723542233 xtb: 6.4.1 (79825abcba525fcdf90b791dcacef51065a7a4e7)
C         3.41793692103972   -1.57522469516636   -2.47744745723028
C         2.84703987205515   -0.25928822278978   -2.98525865127981
N         3.94161941351950    0.70106371006392   -3.31006906432183
C         3.89172339787741    1.62983816535800   -2.39918113103243
C         4.51155587631183    2.98947055860735   -2.33313262983400
C         3.59316365616273    3.87853083814904   -3.18015667760861
N         4.10417550027924    4.80096425859666   -3.93356778145537
N         2.21210896110252    3.77787929492736   -3.15634443236438
C         1.14219207071735    3.09728066982644   -2.40138064231638
C        -0.20036033276308    3.79357827908632   -2.74395111291749
O        -0.09411509747284    5.19654544914061   -2.50137940608410
C         1.00263063375642    1.59195533418121   -2.71885471665982
C         1.95264136178075    0.58713953732836   -2.00627030362269
C         1.14310186813973   -0.14321139543484   -0.89023719082959
N        -0.17708348319188   -0.59664215063492   -1.35500936204852
N         3.03315462712955    1.35051543951337   -1.35105637893945
H         3.68901197081213   -1.53613705058472   -1.41571860482265
H         4.40754534256103   -1.73571367823642   -2.91797048835160
H         2.72192791801884   -2.41652165520139   -2.46567640851061
H         2.26754483785528   -0.37672802746146   -3.91105983171857
H         5.52722998360234    3.06070470229672   -2.73062343847726
H         4.50658215191738    3.28285419491737   -1.28152656673179
H         5.12554904598425    4.79325232359160   -4.04729627062116
H         1.94538091765095    4.22598614278922   -4.03609553594136
H         1.40033230642135    3.29376962292967   -1.35194479328925
H        -1.04881100895580    3.37777873680163   -2.19089615517265
H        -0.37311349892229    3.59417639139886   -3.80899316217869
H         0.72882731002341    5.45478323055279   -2.95848585374132
H         1.20385986563995    1.56137374913110   -3.79804042163693
H        -0.04420186490699    1.37986101293092   -2.46276371695893
H         0.89942453527965    0.68184784555548   -0.22140090219869
H         1.74747005917825   -0.83565067692221   -0.29111479896786
H         0.01939729204909   -1.19575849585127   -2.15303909287751
H        -0.53412781179267   -1.20004438997049   -0.61243265029026
H         2.92435691320151    2.07675387816411   -0.64607816716973
