35
 energy: -49.727521032237 gnorm: 0.112742646430 xtb: 6.4.1 (79825abcba525fcdf90b791dcacef51065a7a4e7)
C         3.55851589068339   -1.54844553964146   -2.57544745856648
C         3.05932861342343   -0.24022663298397   -3.17114856324176
N         4.04991171121142    0.87000486042998   -3.06154398642485
C         3.78985264798751    1.52580122486074   -1.96741016598884
C         4.20692224570549    2.93900884191556   -1.71040418461848
C         3.61894345648892    3.94776608238073   -2.70439206573720
N         4.26296980299805    4.90905756398385   -3.28816731356611
N         2.33311214763674    3.80072181499591   -3.19736837140100
C         1.19361548926816    3.01258595814435   -2.68913988981328
C        -0.12107214885595    3.67452407543855   -3.17706013762292
O        -0.20368075218316    5.00310596441954   -2.66083156453566
C         1.23210568674409    1.55053172959366   -3.18631939679707
C         1.87525171523075    0.40144796413633   -2.35811569514252
C         0.84211032126156   -0.57627017808624   -1.71703640224902
N         0.09834316567963    0.26456238686877   -0.76608266934647
N         2.67829874732486    1.04443726150273   -1.29923081931872
H         4.55884535359232   -1.73241120924999   -2.98505127143469
H         2.78540077776012   -2.26127301346547   -2.88091775240043
H         3.59424348588807   -1.41109744602510   -1.49276250432973
H         2.75961887335374   -0.24939605776467   -4.22793823875602
H         5.28885994531696    3.04847482804185   -1.82038209063690
H         4.00374010441505    3.21757358897351   -0.67450231675079
H         5.21449246830836    5.03190798655695   -2.91977899480475
H         2.19989341990731    4.25434473164443   -4.10422260676290
H         1.10233887041948    2.99178656661550   -1.59470129215613
H        -0.91436710862606    3.15642913727795   -2.62852724107341
H        -0.20727763376274    3.64385697507007   -4.27047107159181
H         0.61656386028280    5.45967601821663   -2.92843168164504
H         1.84930720359598    1.69208220030367   -4.08359080264454
H         0.23497561118820    1.27285862447484   -3.55381650537603
H         1.28718510645038   -1.41835771880657   -1.18765906252292
H         0.12777915654990   -0.91728495126016   -2.47672095614025
H         0.61946096387251    0.28955436202433    0.10696268003868
H        -0.77523275172012   -0.19572004174980   -0.50531401715914
H         2.16269957913297    1.49427372223882   -0.54553450511925
