35
 energy: -49.725921825251 gnorm: 0.112171500330 xtb: 6.4.1 (79825abcba525fcdf90b791dcacef51065a7a4e7)
C         3.52168671587364   -1.51174205761513   -2.95451596308911
C         3.08143096224478   -0.06118153261161   -3.08692979577565
N         4.07661626358686    1.03665244510115   -2.91300814871770
C         3.66883070983226    1.69875426044380   -1.86890062122342
C         4.17080312929053    3.08455485335008   -1.61446926536636
C         3.64414439426485    3.89531293489284   -2.80468944281782
N         4.15610288387658    4.95169774128033   -3.35386558587253
N         2.45393972063760    3.48871137062544   -3.38442890317840
C         1.27401605058395    2.98209444505747   -2.65708689935890
C         0.02683753532879    3.73886869863843   -3.18289133812450
O         0.03593870321488    5.15004242422913   -2.96620761300288
C         0.95672743248113    1.49318895449841   -2.91930795839137
C         1.87839642846470    0.45639593487195   -2.21536326467092
C         0.93708171100431   -0.63237470786707   -1.61303312257647
N         0.09891703442526   -0.16015688207312   -0.49993283388805
N         2.63887149285007    1.12796577670199   -1.14287618408457
H         4.42173693791260   -1.71508155640474   -3.54683371020152
H         2.71851760019930   -2.13764435025929   -3.35739033589954
H         3.73724894886076   -1.70925663811327   -1.90243774728437
H         2.85472804685518    0.10333566647982   -4.14912294454809
H         5.25668356134809    2.97195565190757   -1.66787564824422
H         3.90595679298542    3.50534989516594   -0.64248061758346
H         5.03042111018559    5.29016082896064   -2.93290485562138
H         2.32619817290742    4.09048524308767   -4.20140864582509
H         1.40416269628524    3.26679323240453   -1.60420118586074
H        -0.91354391049135    3.43292801832957   -2.71309284222209
H        -0.13808834521892    3.48297043396201   -4.23704258826878
H         0.91465146678639    5.49839857790118   -3.20988594424319
H         1.03941032097306    1.38432595905769   -4.00897882248042
H        -0.09858363740137    1.29346810619622   -2.68940584366127
H         1.52042110833789   -1.52082949095368   -1.37260310808878
H         0.26459520459596   -0.92302319316065   -2.42971302001886
H         0.43391069751300   -0.76658068230503    0.24466501675491
H        -0.88041317688783   -0.18830176163546   -0.78823005205289
H         2.03284029298295    1.60186957255164   -0.47624671595291
