35
 energy: -49.725591826626 gnorm: 0.122366139973 xtb: 6.4.1 (79825abcba525fcdf90b791dcacef51065a7a4e7)
C         3.69949446566652   -1.43441907889687   -2.46639651542779
C         3.09436727752980   -0.16310681354271   -3.04351924516759
N         4.05770766078658    0.95360313588357   -2.81809475438963
C         3.58086711432526    1.70768156048363   -1.87003503102894
C         4.06003020447878    3.10626437819358   -1.64304656701061
C         3.60960415491772    3.87926988794834   -2.88839833114150
N         4.40958843130776    4.59895751555328   -3.61069998045416
N         2.34035873567697    3.73359134673796   -3.42300440390087
C         1.23094243275528    2.99548636989926   -2.78873044012268
C        -0.01640293222320    3.88726890089895   -3.01999924377728
O         0.00683436837827    5.14652078347888   -2.34754800501045
C         1.11150430844083    1.52746009177416   -3.25446093026681
C         1.83787004146590    0.48656591104421   -2.35508126187033
C         0.93882331778927   -0.68059935893023   -1.84152817706557
N        -0.13756742953515   -0.17839814486004   -0.97338137424048
N         2.50068722458605    1.14644310389067   -1.21280616032584
H         4.64787622244079   -1.62790227316359   -2.98157995579538
H         3.03115937054515   -2.28579374009685   -2.63262366387921
H         3.81713940213296   -1.23834627744960   -1.39865928518787
H         2.93204445719252   -0.18716830124347   -4.12969913963719
H         5.15122501923101    3.04938666031220   -1.61610335341344
H         3.56242661140439    3.41072304949652   -0.72018711374602
H         5.34890493822825    4.73654657995362   -3.21706142839243
H         2.33748764444197    3.89900301311925   -4.43223000548135
H         1.36353268530796    3.04969462265991   -1.69967526967424
H        -0.80136489324797    3.26599580920265   -2.57673627712755
H        -0.29717180199972    4.01807241776345   -4.07260486633807
H         0.80458649037503    5.66601731839647   -2.56337701146499
H         1.39108673036906    1.44909758855391   -4.31359415094352
H         0.05375493869977    1.32921068351452   -3.03471489373269
H         1.64125906168901   -1.39522123165711   -1.41334251152661
H         0.41433173593262   -1.12334468534140   -2.69742879042652
H         0.26040915845772    0.30319864493403   -0.17083810128104
H        -0.68011653262555   -0.89902546681476   -0.49449535783059
H         1.89557402337424    1.71849079812973   -0.62726971452872
