35
 energy: -49.722033543488 gnorm: 0.097023119396 xtb: 6.4.1 (79825abcba525fcdf90b791dcacef51065a7a4e7)
C         3.49693390421998   -1.35698603310195   -2.61733403921548
C         2.89700121354364   -0.13003340661017   -3.28826806651806
N         3.90360623352964    0.97068694734439   -3.32056422843477
C         3.74867818388351    1.58141765485354   -2.18133917645790
C         4.29677254565457    2.91669984605579   -1.78920530690760
C         3.91558287137929    3.83490448750216   -2.95664559777016
N         4.69503624716062    4.48200768202570   -3.76494918015948
N         2.57269147527891    3.94742295900216   -3.27600764112966
C         1.46022763082805    3.19035770540640   -2.67005110095430
C         0.13940164083027    3.99682961430197   -2.76830360842982
O        -0.85528083977645    3.22723773254678   -2.09244782010471
C         1.27578702521328    1.74543732251605   -3.18430612507541
C         1.83275592370985    0.55412921748272   -2.35332941851358
C         0.77498446577773   -0.28175276488949   -1.56801586543054
N         0.04363386131832    0.66798302834752   -0.71500344826783
N         2.78382473340501    1.05497613350619   -1.34131290110423
H         3.84818139866069   -0.98287404174173   -1.64834327466572
H         4.38345642143976   -1.68753669540149   -3.16865623915889
H         2.80818213698286   -2.19225318320626   -2.47486489751315
H         2.48856244185647   -0.46879975061204   -4.25010461570761
H         5.37499666042537    2.92734678843300   -1.61035753567785
H         3.77312291317061    3.15029227490741   -0.86011993106061
H         5.67061226100490    4.49534020952944   -3.44203859014570
H         2.46031240244009    4.28595411417849   -4.23448204615270
H         1.65162811313611    3.19105881715018   -1.58842027650869
H        -0.26306387712144    4.19776473768074   -3.76643894997314
H         0.32515757840802    4.99221827740676   -2.34567438225875
H        -1.63355895986111    3.75430859359051   -1.82911014082149
H         1.61015440870746    1.74651658609100   -4.23037853126036
H         0.20713806421788    1.59945972601917   -3.39192306827726
H         1.31180833115394   -0.98682216704993   -0.93387027370632
H         0.09354228046345   -0.91872468716194   -2.14558318174658
H        -0.32451732676037    0.17642539358819    0.09569522012699
H        -0.65394442903888    1.26547053387389   -1.16153260860663
H         2.31768084331127    1.61997722458432   -0.63439202222942
