35
 energy: -49.725238134272 gnorm: 0.105862220628 xtb: 6.4.1 (79825abcba525fcdf90b791dcacef51065a7a4e7)
C         3.48994801255927   -1.58789268168954   -2.73789652248114
C         3.04409567775850   -0.18089890755424   -3.10812435215335
N         4.09666567132797    0.85889642481253   -2.91628050116518
C         3.81455998658208    1.69878286109689   -1.96242749542696
C         4.33585250610625    3.08981126081355   -1.78793106548123
C         3.57765151068961    3.95171216778499   -2.80458255418358
N         4.09233432590881    5.00748795776476   -3.35238168025894
N         2.39310471016283    3.54858892855189   -3.39817362146836
C         1.19782450186622    2.88098018968397   -2.84725553886456
C        -0.03684139901912    3.71129258243110   -3.28407730013170
O        -0.03987218898574    4.96774465686710   -2.60601760336327
C         0.98101706415073    1.36134491018116   -3.02038741332544
C         1.91191504757826    0.42414211690759   -2.19878438384639
C         1.08825424672335   -0.58465177517080   -1.33959039597844
N        -0.15141514637776    0.02268019109150   -0.83079805458595
N         2.69134133610485    1.27315976848857   -1.27616819893222
H         4.43531656041445   -1.80244638167100   -3.25026621289603
H         2.72645970639516   -2.33836291237183   -2.96816183683525
H         3.79227779659016   -1.61369090447538   -1.68895476143668
H         2.88760336060278   -0.08654226189483   -4.19132395864160
H         5.40667565026751    3.26537754271302   -1.91900889471689
H         3.98971356798395    3.50172285230858   -0.83793597040005
H         5.01105401258318    5.36599280720453   -3.06320013269224
H         2.26156317634490    4.27855350247335   -4.10227172821486
H         1.19304842121357    3.14918508717357   -1.78207799323120
H        -0.93845202275012    3.15282755594939   -3.01233719228283
H        -0.08896732179801    3.77818964708688   -4.37802747762852
H         0.67718781030646    5.51804352588640   -2.97461409321730
H         1.12746568556026    1.16013394343197   -4.09003088269840
H        -0.05893824407217    1.13249489353339   -2.75104470516313
H         1.74189801878858   -0.89348840944486   -0.52422966965699
H         0.85589084574505   -1.46902476780595   -1.94586785774817
H         0.20036259559268    0.51500151570737   -0.01332103734054
H        -0.84945307839014   -0.68356021736470   -0.59212963357594
H         2.08872216071599    1.96759998186074   -0.83929704487776
