35
 energy: -49.717914820350 gnorm: 0.097952168978 xtb: 6.4.1 (79825abcba525fcdf90b791dcacef51065a7a4e7)
C         3.60360087880094   -1.61297526684681   -2.90945291695402
C         3.01532712370759   -0.26840809159217   -3.31139512155356
N         4.08465761053181    0.76907765811767   -3.23369298909533
C         3.85488173135336    1.58196365694550   -2.24311346808570
C         4.41537988001298    2.94770716324593   -2.00281908059057
C         3.54681258562401    4.04301224928813   -2.63307283904729
N         3.79606077070832    5.29877069212025   -2.43160105436539
N         2.37528237414903    3.66469755882921   -3.26742669275860
C         1.27448316516376    2.88328944894133   -2.67114700286412
C        -0.04980111642339    3.56894154561677   -3.09633427140752
O         0.05110605502065    4.96593809602973   -2.81945099040061
C         1.04208665306532    1.41099835180711   -3.07688380949865
C         1.93490607228204    0.36042963202176   -2.35637664862681
C         0.86071027680992   -0.48697664088564   -1.60650827873999
N         0.17672824562098    0.42132332607319   -0.67288001405356
N         2.79805377723181    1.15431357654289   -1.45955935065321
H         4.03584444171693   -1.52056391903442   -1.90600719046158
H         4.37040644850406   -1.93220748801895   -3.62306491585156
H         2.86498164153608   -2.40048878218357   -2.74632184108444
H         2.52728421560866   -0.30664644643500   -4.29479044690271
H         5.40423465691363    2.99366230875949   -2.46619958329639
H         4.54522298404353    3.17017370567885   -0.94186507770507
H         4.69712745833325    5.50464437716975   -1.98227665976247
H         2.04067251181327    4.51260073774347   -3.73110982966270
H         1.33985676458155    3.02737947716576   -1.58416758334195
H        -0.92626174211265    3.08881427691019   -2.64920769094417
H        -0.04444898976251    3.42711502717811   -4.18434894811624
H         0.37089967647944    5.10891675640900   -1.90832179839463
H         1.08228649724711    1.39652374897543   -4.17426463413670
H         0.01302275529984    1.23621699996314   -2.73497174072903
H         1.34057468190430   -1.32041288119509   -1.09410458288563
H         0.14688826228392   -0.89654735140879   -2.33203613835259
H         0.06540442523381    0.02748306053683    0.25819108515428
H        -0.75713813232756    0.58932281799589   -1.05059001745836
H         2.41662791820814    1.72983305618050   -0.71153186807970
