35
 energy: -49.718917296235 gnorm: 0.106859687757 xtb: 6.4.1 (79825abcba525fcdf90b791dcacef51065a7a4e7)
C         3.49574816297253   -1.55016955091296   -2.46891239357963
C         2.97916578638663   -0.20057604682192   -2.94559308047128
N         4.12139535506039    0.75106555404637   -3.07038045641573
C         3.96519517002806    1.62891657798455   -2.12179861651615
C         4.59928163565485    2.98178977470499   -2.19124933132778
C         3.76082292059883    3.86459174620827   -3.12343484888332
N         4.27706672996972    4.77971302151189   -3.88217735454682
N         2.39202438971871    3.74287770317834   -3.29544093462102
C         1.21144256200466    3.04820033445102   -2.74629901269568
C        -0.06536591577001    3.77244189909471   -3.24616509266940
O        -0.92083765129430    3.86427864140559   -2.10678803180511
C         1.15310390228557    1.53547421367046   -3.05375279290372
C         1.91949361725294    0.58573552703956   -2.08907930354923
C         0.98377002525648   -0.32966631700151   -1.24010497912969
N         0.07753848493909    0.59291785244260   -0.53861739181610
N         2.88617097814951    1.37029604131484   -1.29563325526030
H         3.65501175449812   -1.60665370951849   -1.38552772954211
H         4.43097340720702   -1.83408609453061   -2.96276178532219
H         2.77671310292258   -2.31134268648175   -2.77867312620311
H         2.54185299391098   -0.46580064050590   -3.91776995041123
H         5.57853611397135    2.84014867234369   -2.65564744608060
H         4.62461591229595    3.55100169078977   -1.25994381264841
H         5.29224088078480    4.61990787150421   -3.87315905825129
H         2.22135769163660    4.25390306870468   -4.16471163757113
H         1.17041718218121    3.15334026931538   -1.65367721342201
H        -0.53051465678322    3.25836350814333   -4.09350661079573
H         0.19914250054365    4.79970351504487   -3.52667926763188
H        -0.97069871862278    4.80243061633972   -1.84173707927371
H         1.56389888239000    1.42018137510220   -4.06569412744555
H         0.07656506288350    1.32073770990660   -3.09086395491459
H         1.48585632457503   -0.90228437651578   -0.46070696239658
H         0.38365132736265   -0.86952202339537   -1.98313531771969
H        -0.46202052239443    1.20616292830986   -1.14459024113680
H        -0.55431130887855    0.20329321224427    0.16277662283416
H         2.59084027999886    1.92381483496503   -0.49397858999406
