35
 energy: -49.727407382667 gnorm: 0.110491454476 xtb: 6.4.1 (79825abcba525fcdf90b791dcacef51065a7a4e7)
C         3.67834816917292   -1.45491343385890   -2.58893648788017
C         3.17151424517410   -0.12981411788001   -3.13913247023820
N         4.12702114553818    1.00425303543039   -2.97548572593257
C         3.66717825126787    1.63740017298801   -1.93505425824192
C         4.16150557355975    3.01631352126251   -1.63274081502547
C         3.55502467047173    3.87915295714004   -2.74584962142889
N         4.25200852593015    4.79139779630782   -3.34723774128900
N         2.26229911731258    3.69528779834352   -3.20743827568710
C         1.14459631171498    2.89457613695770   -2.67124031486486
C        -0.06138771452451    3.78925641165382   -3.05825654173062
O         0.04128601040045    5.15081271918440   -2.64104139161179
C         1.09865052278498    1.43454129905217   -3.17369308174702
C         1.90025265270555    0.37626449982505   -2.36286885097303
C         0.85393725122746   -0.60165031351159   -1.74383472028921
N        -0.06039227505056    0.23703697257186   -0.95319755239870
N         2.61907942071967    1.04051427978202   -1.25760089257687
H         4.70705391567174   -1.60794160551238   -2.93624693504278
H         3.03354282724106   -2.27884988656397   -2.91219624867328
H         3.73000952496846   -1.43702245138429   -1.49835926295789
H         2.98030549260498   -0.20336601836410   -4.21836541514711
H         5.22576680207479    2.92132709953772   -1.86294239670661
H         3.81879660321993    3.41841585408694   -0.67731511058515
H         5.16432486848462    4.94107980190440   -2.89838168941392
H         2.11369819699267    3.97324409179186   -4.18035330736988
H         1.29415723229705    3.03232770700250   -1.59178863733383
H        -1.00691505772464    3.49151871134699   -2.59354384137951
H        -0.12087766163244    3.82558441522528   -4.15327277531564
H         0.97201184595487    5.36731747123855   -2.84039628315692
H         1.53669867418644    1.45428850718173   -4.18056649848055
H         0.06308796427649    1.06862400441132   -3.18550813273737
H         1.35498136629791   -1.42272662213052   -1.23174893808167
H         0.38487940296358   -1.20141123648251   -2.53374121877548
H         0.21108964921436    0.12313064427918    0.02031128335226
H        -0.98292627310040   -0.19133070880480   -1.04499754789263
H         2.08664576474874    1.45986884829613   -0.49805522217501
