35
 energy: -49.716679342688 gnorm: 0.119463482733 xtb: 6.4.1 (79825abcba525fcdf90b791dcacef51065a7a4e7)
C         3.60107337557819   -1.37583164324731   -2.90041751035669
C         3.06009184071522    0.02868285899581   -3.12438713729769
N         4.11885878411150    1.04180280445672   -2.84423984392449
C         3.73231439138967    1.76127465123018   -1.83044888779794
C         4.12331078065226    3.19299887235646   -1.64486195389153
C         3.63782724384044    3.81230584245520   -2.96094963532793
N         4.16144321368203    4.81316240482571   -3.59636858945668
N         2.44657028150950    3.31625238874542   -3.46378922831528
C         1.25021027362839    2.92569396751684   -2.69301441418280
C        -0.00650665772017    3.69517009097887   -3.17592316496782
O         0.02868079699868    5.10214016775542   -2.93583360990791
C         0.92761930989507    1.42484313274567   -2.86521592220810
C         1.88005701677484    0.41752418077309   -2.15943792567739
C         1.10785346016149   -0.65414116272090   -1.32905756202026
N        -0.08612237070239   -0.13225254492328   -0.64600856879180
N         2.63063506723925    1.23147917105682   -1.18287928376539
H         4.37213376064741   -1.56381460705918   -3.65699266207049
H         2.85605459910900   -2.14423873864148   -3.13201981597193
H         3.88834116493026   -1.56477128030163   -1.86401667732026
H         2.85489523408985    0.19111817243824   -4.19126272232618
H         5.20417781905440    3.12259113316588   -1.49845046310903
H         3.55693929327960    3.59208631802080   -0.80110455727257
H         5.10701117107737    5.16409663986887   -3.39902636670150
H         2.26518877002144    3.85331480691234   -4.31500618347912
H         1.42773566895110    3.18139018271994   -1.63960848278438
H        -0.85063998352893    3.34050839854805   -2.57568854346334
H        -0.16849184473688    3.57916349979807   -4.25491463475470
H         0.92999665816361    5.45713433601786   -3.05615034649680
H         0.98657613840054    1.31285561465222   -3.95611146711017
H        -0.11564321228776    1.41671667048512   -2.52175977063761
H         1.75893659336669   -1.12349655475065   -0.59200965954818
H         0.93830275549150   -1.35387529968199   -2.15688930659246
H        -0.23929446787370   -0.37784665601930    0.32898803074587
H        -0.94753123750366   -0.45442809082858   -1.09004996415042
H         2.10906957438258    1.88103074927871   -0.59781034864774
