35
 energy: -49.720273166318 gnorm: 0.115384092171 xtb: 6.4.1 (79825abcba525fcdf90b791dcacef51065a7a4e7)
C         3.33934648023484   -1.48991941566201   -2.44524515502491
C         2.94671077770127   -0.14328319418173   -3.03506931773319
N         4.14375055835746    0.74700596340094   -3.05412162742344
C         3.88124098269194    1.61722753988609   -2.12211757638302
C         4.54045623316187    2.95821053366931   -2.05612670441757
C         3.82734011747907    3.76688920226408   -3.14645985624860
N         4.44779999469204    4.26413156275974   -4.16989738123985
N         2.46259600482267    4.00064736566226   -3.11746939289719
C         1.36156735550991    3.22822433888555   -2.51001112292177
C         0.15143025336029    4.16126523242357   -2.77389502695508
O        -0.95743808287360    3.66914154415655   -2.02111933181448
C         1.26102700229068    1.80097357081735   -3.09234986676058
C         1.91425513379118    0.70389215856517   -2.20372336008820
C         0.89095106602749   -0.29108544442263   -1.57351314484021
N        -0.34790489983168    0.38408191942421   -1.15651566647529
N         2.86466079896644    1.29496803491532   -1.24095894229338
H         3.64816621413776   -1.26824818587055   -1.41676573193825
H         4.25172989088744   -1.82999111359188   -2.94629388938054
H         2.60923077077603   -2.28400559434902   -2.27581713272579
H         2.50712661152170   -0.25237743359782   -4.03585832337955
H         5.60609413462111    2.84574674446313   -2.27161427005977
H         4.47602551949378    3.45714894633377   -1.08716688567987
H         5.47150650682116    4.17720542444636   -4.19571170519365
H         2.14673281427250    4.66766017077899   -3.82544534707237
H         1.50433449705374    3.22665592290883   -1.42089452427026
H        -0.01455428048049    4.19196228279431   -3.85562254324553
H         0.32035200077629    5.17518583552898   -2.39003335805931
H        -1.33475225945879    2.81464269314247   -2.30455007249099
H         1.60261399342266    1.78045659614323   -4.13588596014938
H         0.17929946543398    1.61936968545597   -3.03481339081517
H         1.43864070534590   -0.74168866447593   -0.74620657513626
H         0.78347279197400   -1.12922037537083   -2.27326950635056
H        -0.12419910534629    0.79704299074173   -0.25439848409421
H        -1.17325414881568   -0.18217140192575   -0.95365888047642
H         2.62849039629059    2.06089553741372   -0.61339851804733
