35
 energy: -49.726516815248 gnorm: 0.104022728534 xtb: 6.4.1 (79825abcba525fcdf90b791dcacef51065a7a4e7)
C         3.76302410550384   -1.27257185675502   -2.64721070719190
C         3.10021791503095    0.02373394669199   -3.08966257472111
N         4.08752468875107    1.13090010093467   -2.93063287546371
C         3.71553964210763    1.70783229613641   -1.82446615870120
C         4.11427402459850    3.11087263263570   -1.49334128894335
C         3.73637668049472    3.73239009229917   -2.84324198014403
N         4.49265531060417    4.09765255815843   -3.83029355105008
N         2.41368578307429    3.74917528599653   -3.25338455318865
C         1.25331232141453    3.05954217795089   -2.65685576629973
C        -0.02937944761853    3.79174715515281   -3.12930632839581
O        -0.28374750373523    4.93274240815574   -2.30962792513160
C         1.03611132802554    1.56528576056330   -2.98288186082272
C         1.86155267564532    0.48007639240288   -2.23393668488503
C         0.89350739894669   -0.64763247565250   -1.75911293739988
N        -0.27109210233023   -0.03223394084710   -1.10375454908066
N         2.64825672703653    1.12563818347850   -1.16440237284093
H         4.72718767713998   -1.22134394497299   -3.16686635599840
H         3.21263395588448   -2.16072444803622   -2.97492664401329
H         4.00416452512443   -1.33711773176518   -1.58418070304144
H         2.83899585476562    0.00460804444091   -4.15648573219512
H         5.16393538641822    3.31201098683417   -1.26438379223734
H         3.53042180377801    3.54881285020168   -0.68136902135926
H         5.50153835324608    4.02149339342312   -3.64987083001296
H         2.45471809318183    3.88373142045576   -4.26635869046179
H         1.41042043183389    3.19298726104180   -1.57793531511952
H        -0.93398008306497    3.17786980384080   -3.07031580226846
H         0.12672127469543    4.13372786222925   -4.16013176909618
H         0.04164587819400    5.75702640913522   -2.71894723013240
H         1.19845060683159    1.50232449540148   -4.06720286720251
H        -0.04116781228338    1.36276975154944   -2.91301209537537
H         1.36539292199721   -1.28840472461187   -1.01468138783477
H         0.56506278480032   -1.17611998564269   -2.66272003819239
H         0.13905827127549    0.36066831871706   -0.26007153632495
H        -0.96487604186561   -0.77078259753368   -0.97645642425240
H         2.10176771585139    1.61235784389662   -0.45679569108658
