35
 energy: -49.730101046855 gnorm: 0.103299567863 xtb: 6.4.1 (79825abcba525fcdf90b791dcacef51065a7a4e7)
C         3.79713448918312   -1.27955358335561   -2.63867994619863
C         3.06440439204244   -0.00820094781984   -3.04148699666654
N         4.00622364801947    1.12883127482524   -2.82697308250582
C         3.60204133122516    1.76530776291806   -1.76567069620485
C         4.05899662998295    3.18717597095681   -1.68419941213584
C         3.64151600036664    3.84668490928480   -3.00407821552227
N         4.35653219505326    4.36616430102586   -3.95199055039043
N         2.27793747393581    3.83399494856397   -3.24595090200259
C         1.19198211889685    2.98447071520790   -2.71972235754725
C        -0.02815546318845    3.81564540162945   -3.19411117588563
O         0.06528688501584    5.13212651107780   -2.64950859072378
C         0.97049966606068    1.48467853978582   -3.01610122944271
C         1.81353699760632    0.45665031808213   -2.20838983962124
C         0.96251973381638   -0.72845481514215   -1.65558608822809
N        -0.09481161523752   -0.28840926395987   -0.73205357515792
N         2.54236998742339    1.14738148610563   -1.12614686268360
H         4.79787967712625   -1.31442633070612   -3.08541324526839
H         3.31330164738603   -2.23647804189069   -2.86081377488734
H         3.87729314451781   -1.30315082200956   -1.54993505952696
H         2.89455959183702   -0.06870850351835   -4.12509485897427
H         5.14059351325636    3.33770618711077   -1.63776697917601
H         3.54954788068405    3.64832507551155   -0.83580241381039
H         5.36605971940306    4.42658072897955   -3.76922952573187
H         2.19049666240123    4.06386844071343   -4.23863306477126
H         1.24790117493055    3.13579269818099   -1.63319826699391
H        -1.01408544822921    3.42831811855167   -2.91743947712522
H        -0.00592794813899    3.91831436190400   -4.28630362816935
H         1.01316710051008    5.34296963590233   -2.74918574877777
H         1.06435070892996    1.23000610525643   -4.08024601614359
H        -0.05729491271395    1.21511610000896   -2.73789400181566
H         1.71991879196137   -1.29208956933666   -1.11142995578798
H         0.46576953336364   -1.26910812686366   -2.47082466789994
H         0.23403385820441   -0.00531783876455    0.18779230155260
H        -0.70442300236032   -1.09416825557344   -0.58332062726815
H         2.05423914792148    1.62642322795921   -0.37215696393840
