35
 energy: -49.717087987108 gnorm: 0.109433735695 xtb: 6.4.1 (79825abcba525fcdf90b791dcacef51065a7a4e7)
C         3.52437657684722   -1.56443130314754   -2.51467098744623
C         3.05524959671709   -0.25475404579390   -3.13123390351897
N         4.07523731568701    0.83263883860052   -3.07570205586809
C         3.82649976832185    1.57018674841586   -2.03215946790686
C         4.24030411807287    2.97717876408102   -1.73840045560049
C         3.62305169188889    3.98635831037739   -2.71404294305487
N         4.32732381063269    4.98040795099701   -3.15620907865307
N         2.31842278337685    3.83028225006270   -3.15175689055190
C         1.22629069737778    2.95064574789426   -2.69198073966441
C        -0.10899569317947    3.59288551818898   -3.14933200684027
O        -0.23425693565841    4.95445047871891   -2.73836188520300
C         1.25232558144007    1.50678996891625   -3.24050078559613
C         1.89566228451916    0.43116834863576   -2.31903035572560
C         0.83742513772157   -0.54432737026750   -1.71666930191264
N        -0.08158382890789    0.21221752933043   -0.85205128153204
N         2.74562989742613    1.09534261515987   -1.31106975373483
H         4.32813748863203   -1.68547640432512   -3.25060180881862
H         2.79732741514796   -2.38195304716983   -2.46776896574801
H         3.94905331150013   -1.26113951361146   -1.55549872114588
H         2.66297973787694   -0.43639294226321   -4.14110820536502
H         5.30798014946534    3.06804097695866   -1.95399057366059
H         3.89341654002560    3.25859940226069   -0.74218489898381
H         5.33258324195982    4.98385355705747   -2.94257583711835
H         1.89109106036178    4.42847789512020   -3.86271058748355
H         1.16616600080060    2.97574532834565   -1.59547951982130
H        -0.94295292271819    3.05298428414579   -2.68927810122451
H        -0.15686816298488    3.50038180271622   -4.24160972976468
H         0.49746576614272    5.54775742289220   -2.99416653246175
H         1.89701944340920    1.55365169057405   -4.12833186922779
H         0.19951638664826    1.29789723009517   -3.47369922041300
H         1.35586207936548   -1.25861874401482   -1.07756497499414
H         0.25908487156343   -1.05664615505794   -2.49559979590265
H         0.47639178167917    0.44531624186263   -0.03429535818442
H        -0.89288549657784   -0.29230652998636   -0.49116326027835
H         2.39098086711572    1.70941041413546   -0.58072853591825
