35
 energy: -49.726111801268 gnorm: 0.106196160786 xtb: 6.4.1 (79825abcba525fcdf90b791dcacef51065a7a4e7)
C         3.55835906795354   -1.31620998281713   -2.62959329364055
C         2.88199943157715   -0.02040079209042   -3.05255974268175
N         3.90046066056222    1.06878747423600   -3.10038911461345
C         3.73785436984998    1.80112124418573   -2.03639904174622
C         4.16030069845389    3.23358625127554   -1.95431335128001
C         3.81087816377977    3.71752948700490   -3.36676690367118
N         4.61512336511647    4.26576205733019   -4.22249787859452
N         2.51880462649265    3.38117031774239   -3.73475919544661
C         1.42282406579159    3.07496328410506   -2.79509392104046
C         0.29206540491906    4.04623881041153   -3.22245855504585
O        -0.97399053614594    3.97208286146208   -2.56667719055162
C         0.91739246887769    1.61611780268098   -2.74429752708104
C         1.83281053564419    0.57293461289505   -2.04163810340420
C         0.94096953756096   -0.46196636315594   -1.28804925781337
N         0.26332503198119    0.18542298340556   -0.15394744307380
N         2.76673484871957    1.32041561674057   -1.17641300757034
H         3.70691060428368   -1.24150919517446   -1.54578984473340
H         4.55107344967445   -1.39230911394309   -3.08551999412420
H         2.88958350283539   -2.16041790854509   -2.80959297572070
H         2.49331478297544   -0.00636627820721   -4.07990666142660
H         5.21479102029268    3.32032504520048   -1.68009869552050
H         3.52477458227908    3.68314365783975   -1.18882089496966
H         5.59720931819833    4.47274084377023   -4.00144468255698
H         2.21755073850539    3.79053748508590   -4.62221071928701
H         1.65773756172780    3.36344113161952   -1.76157756425850
H         0.07419714656811    3.81149986062650   -4.26938674916286
H         0.74726118975915    5.04316183917649   -3.16897397733334
H        -0.73789828484270    4.25095528727505   -1.66149329729379
H         0.61181463528524    1.23307314701516   -3.72713483307210
H         0.02935611779730    1.70008280584624   -2.10338708788423
H         1.53297073393039   -1.29859275318166   -0.91786792368115
H         0.22902598920630   -0.79696402479390   -2.05263650587307
H        -0.72284757211803   -0.04268882454044   -0.05482563644651
H         0.71538922618378    0.03836667163504    0.74993722182216
H         2.21092574656999    1.93489460946486   -0.58502032753818
