35
 energy: -49.723848220580 gnorm: 0.099701945752 xtb: 6.4.1 (79825abcba525fcdf90b791dcacef51065a7a4e7)
C         3.53696262128462   -1.37048061775204   -2.49769023380027
C         2.94266854253205   -0.09232687877196   -3.07094586469261
N         4.03638610337746    0.91894913677616   -3.15452054581026
C         3.91184309938576    1.68006271001129   -2.10570044559856
C         4.60958388499507    3.00233467945914   -2.06200164943040
C         3.85225371393806    3.68548830716927   -3.20702319163533
N         4.27966147706203    4.22347678588462   -4.30590253696818
N         2.47702135836844    3.84776992200155   -3.18676247573034
C         1.32027361296112    3.17304058349937   -2.56661575899115
C         0.01956928441489    3.92788521153691   -2.94478195898197
O        -1.01158484467879    3.27696787799476   -2.20216917091604
C         1.19549089497742    1.70989892086182   -3.04611267636019
C         1.87391031839126    0.62247791792798   -2.16451506884181
C         0.93946442202958   -0.14595618711823   -1.17931638511169
N         0.05585153905816    0.77914527394844   -0.45273704819187
N         2.88523088251324    1.24452211864526   -1.28710485498021
H         3.93417119550266   -1.20249430781177   -1.48958129638623
H         4.40799923865247   -1.67763803516265   -3.08598574989748
H         2.79800969670962   -2.17179203966693   -2.56246870288721
H         2.43677558014819   -0.29840901519656   -4.02400246576371
H         5.62345550156274    2.84820049731526   -2.44012087106381
H         4.55018640627982    3.57983347600064   -1.13737141139124
H         5.27224683736219    4.24412197414382   -4.57150682368100
H         2.19054991036807    4.15506681939257   -4.11918316427190
H         1.38540915491903    3.23767880440075   -1.47202033308144
H        -0.11446328704453    3.83794559075088   -4.02763639581424
H         0.09013340675826    4.99363126570916   -2.69353430731029
H        -1.86448919561479    3.62443406749321   -2.52572546745913
H         1.54562634960792    1.69192089514257   -4.08685864059209
H         0.13752876402885    1.41555967565337   -3.06859406382471
H         1.58521399291001   -0.53510859905849   -0.39254370133387
H         0.44124796942637   -0.97225518923744   -1.70151464919754
H        -0.46456333355111    1.24807003479187   -1.19007989175390
H        -0.59046301395625    0.24063084380832    0.12629213268064
H         2.54409525258910    1.66460054526863   -0.42489021999600
