35
 energy: -49.723560022004 gnorm: 0.113765530940 xtb: 6.4.1 (79825abcba525fcdf90b791dcacef51065a7a4e7)
C         3.64839213855140   -1.42397201139961   -2.70343255611392
C         3.10168732653789   -0.03259912144947   -2.98747439281454
N         4.17437978104984    0.98004556084154   -2.76439671783088
C         3.74656086460952    1.70311269192495   -1.76992533545521
C         4.10170908680024    3.15102574891089   -1.64920881756262
C         3.63397567322013    3.77288512994609   -2.97051066943606
N         4.35657957065824    4.56254751054335   -3.70121016649234
N         2.33410844261498    3.49430355439299   -3.35877263316422
C         1.13235139700034    2.99748631213478   -2.66101936244583
C         0.01573052513958    3.96495829820287   -3.13196269770606
O         0.08815703923317    5.23155153629336   -2.47702611457016
C         0.89782298807673    1.49612700130625   -2.93884698591029
C         1.85013304862015    0.50984996460208   -2.20378587814586
C         1.06179730559852   -0.72226810457024   -1.66091537528062
N        -0.32172231042103   -0.35060690344068   -1.32588791341290
N         2.58524804331603    1.25753978024068   -1.16449630547869
H         4.61859800994203   -1.51485063990199   -3.20614452311278
H         2.83836216901402   -2.11125488333669   -2.96920649158460
H         3.79045555928977   -1.55791883618883   -1.62908442923867
H         2.92259621483872    0.05888149468443   -4.06741517392763
H         5.18828176023407    3.25204074572718   -1.58737887043970
H         3.56765623174836    3.63555104954126   -0.82945471327218
H         5.27066502761503    4.72925929883081   -3.26206038897650
H         2.23955237106637    3.93685602830215   -4.27589425113665
H         1.37284468408129    3.19479914209192   -1.60755340796464
H        -0.94677441661312    3.49997609519984   -2.89531235333831
H         0.07022791688470    4.00412466753604   -4.22714093062866
H         1.01850268980105    5.52085652981496   -2.53724946997780
H         0.98286502899056    1.41115834472367   -4.03045972866581
H        -0.10262971636192    1.19322539553769   -2.60154908117327
H         1.53934270271219   -0.93762639346588   -0.70539741743743
H         1.19362580694463   -1.55516162272829   -2.36276317949531
H        -0.24694653583597    0.26025320227464   -0.51616261740495
H        -0.86625028269012   -1.17999634554743   -1.08381865410010
H         2.11630049813761    1.73067449588441   -0.39476569308666
