35
 energy: -49.714445240054 gnorm: 0.114524460882 xtb: 6.4.1 (79825abcba525fcdf90b791dcacef51065a7a4e7)
C         3.71017201871815   -1.38095233529806   -2.36859372677534
C         3.03849702705661   -0.20078811185413   -3.05528840059329
N         4.03593094142663    0.90803880471811   -3.09415326830292
C         3.78483694789485    1.57324160085025   -2.00360960431181
C         4.28624238499142    2.96651295364131   -1.79255871628748
C         3.68624565782177    3.94096319581038   -2.81323145627939
N         4.27296999069184    4.88087559812445   -3.48551416706178
N         2.40525516568407    3.70140574996375   -3.28193758555783
C         1.22307305108654    2.98975236953427   -2.75858122516817
C        -0.01053827303768    3.88285565925788   -3.05047408718983
O         0.02208790481401    4.95075094875784   -2.10338320332232
C         1.07732962945613    1.50190430445469   -3.14760373629619
C         1.83220639462889    0.45101389363736   -2.28404012252730
C         0.95159314116021   -0.65004239500008   -1.61583960695332
N        -0.42274725916233   -0.19905525880841   -1.34695106288479
N         2.63846006311002    1.21933322919846   -1.31491815323516
H         4.54470877700139   -1.83736657804463   -2.91404044570113
H         3.07530353106523   -2.19711550457937   -2.00809162378973
H         4.14294915930094   -0.86657398862209   -1.50809007288733
H         2.75903132833601   -0.39136589879544   -4.10041684255487
H         5.35730481701646    2.86492948700326   -1.98536228567762
H         4.06353476054456    3.30508515945978   -0.77878153224280
H         5.25374383231920    5.13475137839564   -3.31280829503880
H         2.42452583159413    4.13779648208586   -4.20665233569162
H         1.22279496983021    3.20760691748598   -1.68196652472515
H        -0.93282407860953    3.31726878947492   -2.88276010382516
H        -0.01929246985323    4.19424143364712   -4.10255849031935
H         0.36462638720805    5.77561387398771   -2.49725602920973
H         1.26537206499751    1.37940375684653   -4.22264041721966
H         0.02697517309759    1.19808231845770   -3.04333200832593
H         1.42322656198345   -1.02771312938821   -0.70899337075805
H         0.87905982469136   -1.48667686617930   -2.32185830127248
H        -0.56576048369594    0.23145623961148   -0.43667439845954
H        -0.99763886917817   -1.03439335626810   -1.46821518612028
H         2.07023224432484    1.83169049714832   -0.73320583972842
