35
 energy: -49.715754080934 gnorm: 0.123469673413 xtb: 6.4.1 (79825abcba525fcdf90b791dcacef51065a7a4e7)
C         3.69868151319284   -1.43895842772696   -2.74344983423778
C         3.08805004216636   -0.11681125687359   -3.18451730318942
N         4.13513244668140    0.92799306615131   -2.98987821486299
C         3.73017619152605    1.65775545647925   -1.99073572433950
C         4.19706726321425    3.04182401794277   -1.66898753899448
C         3.62383223817496    3.83914300802053   -2.84669982580292
N         4.22372103502100    4.84319172003245   -3.40496895450153
N         2.29339899913461    3.62508499797802   -3.16628768572641
C         1.13444562827129    2.93901384710396   -2.56293005165014
C        -0.06131321152380    3.79800393129500   -3.04968324246687
O        -0.11133856251392    5.18545298560766   -2.71662388139600
C         1.01160488732715    1.47469303302129   -3.03931880446131
C         1.90458981282688    0.43315697708610   -2.30601650849113
C         0.98034421115577   -0.58899138397661   -1.57438862362335
N        -0.12988426845656   -0.00139688943932   -0.80847256975558
N         2.73940198616999    1.03888271011194   -1.24972964714369
H         4.00445399133419   -1.50888493774996   -1.69278758892791
H         4.59336402991133   -1.33042345055851   -3.36546707087911
H         3.17128850628019   -2.32368289392827   -3.10603348098327
H         2.81749140398272   -0.10699417250874   -4.24913745576466
H         5.27964972283756    3.19242567180539   -1.67021363568630
H         3.91312365808859    3.43557274348089   -0.69107549356442
H         5.24288406218487    4.91198967101909   -3.29195954797647
H         1.95904937420345    4.06377224072009   -4.02749000079675
H         1.19668173651551    3.11006249793950   -1.47968081545958
H        -1.02247541209444    3.38799960262837   -2.72304694851985
H        -0.16438761917612    3.75128248613674   -4.14106406708067
H         0.75945193761611    5.59870622276489   -2.87093825787546
H         1.36103128150849    1.49374365627453   -4.08028397528053
H        -0.05543302318348    1.23392615367373   -3.13874853679855
H         1.60058077355630   -1.15542278569731   -0.88019453236951
H         0.63290346577354   -1.34362522821224   -2.29097316042618
H         0.03992844887698    0.17407173817683    0.17883231557312
H        -1.00744724704916   -0.44263283490960   -1.08809578503020
H         2.32583220401849    1.64368583154416   -0.54302835867340
