35
 energy: -49.719929634627 gnorm: 0.116645186193 xtb: 6.4.1 (79825abcba525fcdf90b791dcacef51065a7a4e7)
C         3.48786840319553   -1.61768716721324   -2.62164916045452
C         3.03642703610106   -0.22241574381606   -3.02773139457977
N         4.06034883243936    0.85919619623250   -2.94065806484211
C         3.72782834054138    1.70920669833180   -2.01235817761981
C         4.23087186551329    3.08955694997672   -1.73176001244454
C         3.61993653487143    3.98687989288457   -2.81476128153807
N         4.11689056509513    5.12832969444061   -3.17500266015207
N         2.47399979262254    3.58734166846425   -3.48200039693128
C         1.28743411944969    2.90854277051422   -2.92594201139429
C        -0.02822906260065    3.66958140856894   -3.23332191538159
O        -0.02324520966858    4.94878862363053   -2.59924777170465
C         1.09363165089060    1.40061569526075   -3.19956231784835
C         1.87722608889409    0.47527113364768   -2.22505274800233
C         0.99700287459113   -0.55296490552683   -1.44901517870325
N        -0.20217703307091    0.08335847130575   -0.88195073395307
N         2.58047987551004    1.39307601625612   -1.30710652436991
H         4.39419843545011   -1.87237299708787   -3.18376897038293
H         2.65849017024403   -2.30166739195558   -2.83008351159511
H         3.86393154274629   -1.66101343520380   -1.59741919988052
H         2.79528629595808   -0.30026998437068   -4.09661131433436
H         5.31911691416726    3.16973682255025   -1.79469684303411
H         3.88536776734485    3.41146495839696   -0.74739414897252
H         5.03039949240853    5.25213775780840   -2.72072238099374
H         2.26051493973812    4.22281796977964   -4.25433431898936
H         1.40892774111822    3.15035940874615   -1.86136514325628
H        -0.92551440705519    3.11845913639078   -2.93370409173498
H         0.05146424933071    3.89384327959794   -4.30443111654890
H         0.84139444310256    5.37593012404507   -2.75029634058135
H         1.28203791616231    1.09883065538023   -4.23855176524480
H         0.04578660858695    1.18277593470178   -2.95259776889898
H         1.61015148966557   -1.20056852625280   -0.82283494694665
H         0.65132966187256   -1.17568332283563   -2.28352852414878
H         0.01459936198350    0.81946364617406   -0.21445264140504
H        -0.81802386262327   -0.63272037844531   -0.49341650289671
H         2.57036779158564    0.98391133405073   -0.37504670890537
