35
 energy: -49.716957159104 gnorm: 0.125366148809 xtb: 6.4.1 (79825abcba525fcdf90b791dcacef51065a7a4e7)
C         3.55906001313101   -1.27634933713394   -2.45746972055375
C         3.01120920613378   -0.03868878658964   -3.15284035598437
N         4.01211167012802    1.06651820857982   -3.10191119961758
C         3.63802610893739    1.75659300293847   -2.06331348104646
C         4.34350567575126    3.05483549922758   -1.83089148531945
C         3.84442065502160    3.70995770893830   -3.12435631031655
N         4.69400097809645    4.23110828687459   -3.95276452750626
N         2.50020748990579    3.81362074317305   -3.44114456458669
C         1.38563285980304    3.19171906778744   -2.70028784254910
C         0.15223249411446    4.13147912095790   -2.68592133312239
O        -0.82873602237229    3.55093465290184   -1.82620344645925
C         1.18791159137313    1.73711235691776   -3.18122146334094
C         1.85331957777384    0.62536274378963   -2.32029364725388
C         0.81831647345364   -0.39339883122496   -1.75003931709546
N        -0.16498360751282    0.40135997412135   -0.99772197928962
N         2.66619086076142    1.21753492474655   -1.23949331949824
H         3.57029405065843   -1.00970801799213   -1.39395954579352
H         4.58361371989248   -1.42222900990245   -2.81545143577880
H         2.91854543120322   -2.15671221837996   -2.54143362736110
H         2.64771882430833   -0.24114721537716   -4.16950143820586
H         5.43624952800737    3.07661596892238   -1.84107154454889
H         3.94667403505634    3.54854536563567   -0.94165066929080
H         5.65354084596184    3.98171687729406   -3.68205299049771
H         2.24842531152953    3.89748785520489   -4.42880727979074
H         1.58320439492158    3.32981280857861   -1.62862768386256
H        -0.31594879304238    4.28778770430181   -3.66316311200273
H         0.44983460292034    5.11137388687001   -2.29201962327671
H        -0.39774565937674    3.06884703800637   -1.09496743922499
H         1.59259358401348    1.78054075797632   -4.20122963488945
H         0.11028472662611    1.55352254385854   -3.28817935274509
H         1.31923045566052   -1.05636927688675   -1.04505794550029
H         0.49262435559060   -0.93093341676396   -2.64929563675003
H        -0.45555983861793   -0.11644302095810   -0.17198470120153
H        -1.00955491954188    0.53014381345555   -1.55728351134645
H         2.12275950746198    1.66940230413284   -0.50685990060283
