35
 energy: -49.719659320958 gnorm: 0.127590066182 xtb: 6.4.1 (79825abcba525fcdf90b791dcacef51065a7a4e7)
C         3.52361136638997   -1.56967143644089   -2.94109672203366
C         2.98881054180627   -0.15765503995817   -3.12999397646928
N         3.98425153442943    0.94995170677629   -3.03951471582980
C         3.73363838516082    1.62850928760685   -1.95711873541818
C         4.24570113672084    2.99450151740670   -1.62694926302045
C         3.52606014286221    3.97810819140475   -2.55751734971153
N         3.93747906659200    5.15418605853764   -2.91419667307524
N         2.50404352565522    3.39231204625835   -3.28575823577888
C         1.22584300510124    2.89747308273245   -2.73872547190757
C         0.10572177207753    3.73505220484816   -3.40836828435947
O         0.18686660998029    5.09486161297979   -2.98084067693491
C         0.91314657038390    1.42137487314496   -3.06982451025901
C         1.79047291047091    0.40705749044352   -2.28152862789615
C         0.98212029007314   -0.65377214633701   -1.47189719928808
N         0.05222360872260    0.12971484008708   -0.64368087751063
N         2.62714461366285    1.12316957921403   -1.29830898850613
H         4.40109625156614   -1.65515376225684   -3.59300984806826
H         2.68733850206826   -2.24139221531109   -3.16150762180289
H         3.90038569913774   -1.65416358569946   -1.91970069837852
H         2.79516889392788   -0.02674931398195   -4.20334434412571
H         5.30846012339888    3.11053395444217   -1.85442881439960
H         3.93097038344349    3.32634920087968   -0.63558874712877
H         4.86726975489522    5.37890905247808   -2.53844885946392
H         2.33884508207744    3.74423887923854   -4.23167714690909
H         1.33215185314264    3.18753846905776   -1.68462851503173
H        -0.85755563830727    3.36525583663418   -3.04234249333304
H         0.24431775719967    3.57278449606323   -4.48464876851072
H         1.08313376474138    5.41645580522579   -3.19566531462083
H         1.10810995801300    1.34299750188063   -4.14774680427200
H        -0.16094673614716    1.38430771338546   -2.84316516594249
H         1.64567778492655   -1.24025496782684   -0.83693837919463
H         0.37273288477277   -1.26045794134584   -2.15326349815979
H         0.38144246967380    0.32048730037466    0.29951440760756
H        -0.87479953719087   -0.24864631430054   -0.44251923671482
H         2.21629010091182    1.68278866318772   -0.55381014990075
