35
 energy: -49.721779407892 gnorm: 0.110659642824 xtb: 6.4.1 (79825abcba525fcdf90b791dcacef51065a7a4e7)
C         3.52872428279662   -1.39981429024439   -3.08381420444828
C         2.93347202900429   -0.00987518483438   -3.25477758013281
N         3.96813063870922    1.04358940774227   -3.04129242764631
C         3.71216300241971    1.65913204881099   -1.92307230691986
C         4.17324079630877    3.04486933820461   -1.60012594001867
C         3.60332772077245    3.95749443907185   -2.69266275818792
N         4.13785124896846    4.99214704032481   -3.26136602314188
N         2.36442378616888    3.59932435262994   -3.19748063824726
C         1.19991443204810    3.04609449820187   -2.47931514004073
C         0.01037279587925    3.92183497477397   -2.95122737163866
O         0.28544473129981    5.31960194333889   -3.04624783123832
C         0.98641362938426    1.55701692027444   -2.83050868901532
C         1.85667711024649    0.43383740482155   -2.19721497914528
C         1.01346342238753   -0.77702695223033   -1.69016989297944
N        -0.19750318205766   -0.46789873640534   -0.91396013713170
N         2.72318581581748    1.04907291723329   -1.17241995035291
H         3.52879855108577   -1.80054630628184   -2.06318130118817
H         4.57829911849277   -1.46633026599107   -3.38895411704992
H         2.94783769937440   -2.08814975236516   -3.70115749310390
H         2.46170506583141    0.09960960947815   -4.24076106420797
H         5.26282408556938    3.06144667979779   -1.68498223461075
H         3.97323223135142    3.37848660451768   -0.57999355527262
H         5.10844485725644    5.11631825773930   -2.94715729510331
H         2.16820114130686    4.16607956788817   -4.02584698343731
H         1.28046463292495    3.16237499435633   -1.39002619870809
H        -0.74431526089591    3.80983644517803   -2.16603321349894
H        -0.44444501455368    3.45432600708627   -3.83355126638098
H         1.11471303661415    5.46849192986609   -3.53921143023090
H         1.21761105606562    1.42501763050432   -3.89596359563640
H        -0.09375968179341    1.43624530652993   -2.67219032847599
H         1.70845434338057   -1.31256093614340   -1.04392355385771
H         0.83103001312324   -1.32148901962807   -2.62502807260972
H        -0.00543996080099    0.19570571946389   -0.16754377880304
H        -0.48621855376067   -1.36362000019796   -0.51732184297062
H         2.45369727540769    1.40417913079634   -0.25725386099684
