35
 energy: -49.716055340104 gnorm: 0.122491030940 xtb: 6.4.1 (79825abcba525fcdf90b791dcacef51065a7a4e7)
C         3.58585265196324   -1.43795357382793   -2.58653329155663
C         3.03186601458987   -0.13554463216890   -3.14538409923773
N         4.14122212854547    0.85023792063115   -2.99227044280128
C         3.77845387612773    1.58763154478431   -1.98257827641653
C         4.40479581606101    2.93508932662590   -1.81167405758701
C         3.61024679207061    3.87208467470697   -2.72930892046502
N         4.08703766564585    5.04664663191988   -2.99897439830265
N         2.38591116001757    3.54448389784857   -3.28760078510321
C         1.17515190216861    2.83352103509155   -2.83317720488814
C        -0.01850070914461    3.71505192189653   -3.28343110961869
O        -0.14045150275563    4.85117043990989   -2.42738865814277
C         1.05747966408829    1.36397419364539   -3.29454136011265
C         1.84723602842302    0.46390303204589   -2.30151138429718
C         0.91559867643622   -0.56234355826717   -1.58515506082334
N        -0.06631557330425    0.28748426004753   -0.89367904428327
N         2.58598569946139    1.30635122935134   -1.34021698296027
H         4.56860310198253   -1.69415413473783   -2.99986186757928
H         2.94328537643944   -2.32035583824253   -2.67380083516110
H         3.73831437163261   -1.36451918404284   -1.50777915456746
H         2.79949297315537   -0.36327841438846   -4.19460024837725
H         5.43867734158063    2.81941274257359   -2.14689795032162
H         4.31160776306341    3.25751806414672   -0.77276612351422
H         5.05900926626346    5.32340733743141   -2.81223320626229
H         2.16764909915430    4.04812900195291   -4.15050800706807
H         1.20069527689314    2.89122751623051   -1.73655630766007
H        -1.00454958720887    3.24081646734807   -3.24553736334801
H         0.14031924881319    4.16247085259217   -4.27262869007742
H         0.72853074395782    5.28918487823905   -2.50407287330978
H         1.35347515530396    1.21120035291132   -4.34101975757075
H         0.02753615721231    1.02029970883534   -3.12862238482241
H         1.45971117248536   -1.20047134631059   -0.88932613979629
H         0.42525992877719   -1.16214244144864   -2.36200120491869
H         0.39788089245994    0.83727381911906   -0.17489561142164
H        -0.97479497554439   -0.12800281020872   -0.68147452571765
H         2.08800478377955    1.74833206981442   -0.57020307011218
