35
 energy: -49.718432870217 gnorm: 0.108732017402 xtb: 6.4.1 (79825abcba525fcdf90b791dcacef51065a7a4e7)
C         3.50289573834277   -1.53166678385225   -2.64143010984577
C         3.05664363994186   -0.16481487766183   -3.13948571713124
N         4.08297143827159    0.91230728399145   -3.02839517613735
C         3.84647610791430    1.58890801559788   -1.94160640837415
C         4.25471508245858    2.98406194781594   -1.58941133181640
C         3.69112632396165    3.92459099795853   -2.66136981905565
N         4.45584118790324    4.79135312368059   -3.24752628254031
N         2.45037500349577    3.68492059573238   -3.22803029206029
C         1.20321631331510    3.06398312679071   -2.74126666672051
C        -0.02477879571184    3.75515521056743   -3.38852317452732
O        -0.40526763898593    5.00305116791542   -2.80849742426862
C         1.18944178867487    1.57166732703698   -3.14010919265312
C         1.88388598172471    0.46236287148032   -2.29919148713394
C         0.82662847789687   -0.52098558276346   -1.70798174320365
N        -0.07203496747103    0.20339842752825   -0.79574613844020
N         2.78478466952964    1.01288237348600   -1.26726765811269
H         4.29955825043175   -1.98108084709084   -3.24610649022686
H         2.65811270881257   -2.20705242443863   -2.47014686065183
H         4.04285398825142   -1.36419131792776   -1.70722203462003
H         2.69686394894689   -0.26122726419415   -4.17291576030635
H         5.34501240562133    3.05449428005388   -1.55845697451320
H         3.91573371178150    3.30656244482114   -0.60297377533270
H         5.37113143629016    4.95091401618311   -2.80822951970185
H         2.47551022963607    4.19099595341742   -4.11637794270178
H         1.06391410082195    3.13714765131196   -1.65415962257151
H        -0.89985290374109    3.11650211969626   -3.23042469566266
H         0.17782663049781    3.91034757730829   -4.45566219938425
H        -0.57426206267242    4.78214712035857   -1.87281075244818
H         1.60775019597723    1.53810435743483   -4.15497953947159
H         0.13147097465093    1.28263228449071   -3.19995385846701
H         1.35970690302914   -1.41877859295580   -1.39615091193521
H         0.19522767592510   -0.80295044070153   -2.55975023470464
H         0.50251753499720    0.56180518771931   -0.03691113927328
H        -0.84797366664112   -0.39276093005693   -0.50332821586284
H         2.29121952703070    1.61727471424020   -0.61354230079512
