35
 energy: -49.722913733777 gnorm: 0.120790022967 xtb: 6.4.1 (79825abcba525fcdf90b791dcacef51065a7a4e7)
C         3.61794366329105   -1.38876983432176   -2.85056165065521
C         3.02872563754902   -0.01786333972420   -3.14875949758503
N         4.06507432159532    1.03781403661930   -2.95534622398216
C         3.65249777105574    1.66985877525276   -1.89462549439218
C         4.06838238101821    3.08250409658119   -1.63265578896389
C         3.60520283023754    3.91838534125612   -2.83185945704591
N         4.19280004188805    4.97285617743922   -3.30352202058296
N         2.46450434253552    3.45286490218750   -3.46439999634948
C         1.29060386495150    2.93839868161415   -2.73283375191461
C         0.09665436921706    3.83568039258160   -3.14996920346279
O         0.14041453110018    5.18084057416763   -2.67344523411428
C         0.92914667191505    1.45379768980135   -2.95994639241788
C         1.86796517380277    0.46935595340431   -2.20532993091353
C         0.94786034884650   -0.66170185010028   -1.64998144986870
N        -0.03755426705811   -0.21370335470858   -0.65360935167917
N         2.68577390627497    1.05096693689513   -1.12252131700375
H         4.13076309641863   -1.44034191160451   -1.88276299799998
H         4.32583591324293   -1.64902466984936   -3.64447478597455
H         2.81785350089661   -2.12317307291550   -2.96394280163011
H         2.77100033322614    0.01732039736439   -4.21602431838185
H         5.13874762596401    3.28665433564256   -1.71814305283729
H         3.68153146389912    3.33408633785714   -0.64319798818389
H         5.10562635608321    5.23616206275026   -2.91158364500452
H         2.22328738435091    3.79422320098364   -4.39777799285401
H         1.20409514539310    3.14470258493667   -1.65741995520909
H        -0.80071498765890    3.37111802613935   -2.72861703963131
H        -0.02749337063701    3.80173077961719   -4.23962699164112
H         0.48920985585624    5.85477241606609   -3.28746881115160
H         1.01514278980753    1.23868257361631   -4.03344551641282
H        -0.08861445214660    1.30988449971518   -2.57280795583254
H         1.60942576602793   -1.43920906050793   -1.26885535395067
H         0.42898603089877   -1.12568446959986   -2.49802053003522
H         0.37244883696667    0.20767646171876    0.17629006465078
H        -0.71418176558949   -0.96865078451291   -0.53022097131533
H         2.18499705033756    1.63551330924255   -0.45635199175791
