35
 energy: -49.722295463159 gnorm: 0.111981794645 xtb: 6.4.1 (79825abcba525fcdf90b791dcacef51065a7a4e7)
C         3.61758558023200   -1.45513898438395   -2.60193815438732
C         3.00831723769978   -0.14979452202169   -3.09219560615754
N         4.04436660153219    0.90335023257913   -2.88394132297732
C         3.65039870218677    1.66827454852038   -1.90695181830061
C         4.17329959695409    3.05442226667653   -1.70122367125745
C         3.64393605136634    3.89973764462141   -2.86592891887338
N         4.19603944649159    4.96182976136379   -3.36270549896880
N         2.39344109488367    3.58774762818484   -3.37281591176116
C         1.21001037042432    2.93380449239422   -2.78141328596525
C        -0.00075617345542    3.77361126663798   -3.26452899593410
O         0.00065327851536    5.11527953050805   -2.77629724851707
C         1.06471529646395    1.45693724416445   -3.21039347938987
C         1.78767700425188    0.43306425666327   -2.28900204993573
C         0.96667716569131   -0.66711047666284   -1.54746892788005
N        -0.12426648336058   -0.02707418186607   -0.79600537592530
N         2.48679642327204    1.25625785475093   -1.28245285213227
H         4.51795483146587   -1.67037535903667   -3.18954873734076
H         2.83295018995683   -2.20261719981094   -2.75930939198995
H         3.82598667408231   -1.36166415589626   -1.53414645711857
H         2.85051557309729   -0.15137120740542   -4.17930671728830
H         5.26296094410990    3.10853132956692   -1.76738629062985
H         3.96046356979685    3.49649157919501   -0.72590345051795
H         5.08666489102342    5.18041447941004   -2.89880399874907
H         2.22522050033224    4.17984464752916   -4.18953406800000
H         1.31845610740784    3.16557073361508   -1.71319803896415
H        -0.95806751173508    3.35513863027086   -2.93732378894286
H         0.18568412148836    3.84434506420127   -4.34348964410095
H         0.89850102842096    5.38743511434713   -2.50672719021009
H         1.47437521265961    1.23772949831999   -4.20547987134548
H        -0.01265266237930    1.24756921582222   -3.25361593091881
H         1.65263172986576   -1.24516210866108   -0.92878807056581
H         0.46539923607490   -1.39169074655922   -2.20121549253154
H         0.29351338171153    0.42426959641602    0.01402259725418
H        -0.79306891895888   -0.66036342611123   -0.35482160608057
H         2.49784985158969    0.91425208269958   -0.32372277822643
