35
 energy: -49.725052293390 gnorm: 0.109529956444 xtb: 6.4.1 (79825abcba525fcdf90b791dcacef51065a7a4e7)
C         3.40632857069361   -1.46886850631947   -2.36445777075124
C         2.88439278151939   -0.21236849524816   -3.04583521259859
N         4.01628226693656    0.74315577226061   -3.22382842474541
C         3.85398717106313    1.60510871628864   -2.26178588551549
C         4.48340263442441    2.95631423367453   -2.13835671577952
C         3.84910538600502    3.87746818361993   -3.18738702562560
N         4.48842636635896    4.86695835153176   -3.72759319020900
N         2.49547747507408    3.76876427206441   -3.45920455510443
C         1.37405604250039    3.07629939107186   -2.79526681914554
C         0.09145223083179    3.88943719875761   -3.10890068618020
O        -0.98948222429816    3.45230549735602   -2.28492099063279
C         1.14911532743145    1.58606761240896   -3.13420997072887
C         1.82548312416750    0.56236779708683   -2.17790614614623
C         0.77915224820348   -0.18783869089402   -1.29661249697430
N        -0.03826203346828    0.76205460482890   -0.52587350238559
N         2.85620914199898    1.24728759787225   -1.37289328575531
H         3.46195448474428   -1.27083720767114   -1.28744010648597
H         4.41490452885873   -1.73013582989842   -2.70158683635116
H         2.73339128437739   -2.27576698062247   -2.66180930304543
H         2.52569783371645   -0.42039145079618   -4.06307599715825
H         5.54045686313798    2.99070777537591   -2.41425631110812
H         4.25642307591634    3.43055418707904   -1.18151255262347
H         5.47901103634396    4.66184968395387   -3.54629228449666
H         2.20495666985043    4.46940835041460   -4.14520829328834
H         1.44695301575229    3.21644251176410   -1.70824988095776
H        -0.27008322037226    3.70903551175955   -4.12643444152715
H         0.25706411790126    4.96314068056271   -2.95510580667595
H        -0.69287379619208    2.68438522665165   -1.76033624143211
H         1.47948443954960    1.34009831112872   -4.15225985417847
H         0.06575851636286    1.42434931708592   -3.05290749371419
H         1.42088507303852   -0.67350398026485   -0.56193462310715
H         0.17930432365779   -0.92843316248657   -1.84010398887454
H         0.47657182703624    1.57315885268491   -0.19202842891475
H        -0.47845015010112    0.29073056676143    0.26601232224375
H         2.54276757895875    1.98367868611075   -0.74381773878365
