35
 energy: -49.725160717330 gnorm: 0.117067518843 xtb: 6.4.1 (79825abcba525fcdf90b791dcacef51065a7a4e7)
C         3.50790806938594   -1.35046730219520   -2.20948807826607
C         2.80901650965703   -0.19601209052370   -2.91253019828007
N         3.86032123751132    0.78510480577152   -3.31008526670803
C         3.78978990091082    1.66009638848933   -2.34870942640490
C         4.50405699148059    2.97411160664979   -2.36718918409298
C         3.63159256066583    3.79200639639251   -3.32696838894884
N         4.13897273960044    4.48360853757576   -4.29851182515610
N         2.24876882391202    3.86464157848266   -3.30389293554727
C         1.24362511845685    3.14048373298002   -2.50190259085460
C        -0.11194482003869    3.88058122579878   -2.64089063110917
O        -0.08536495529179    5.11784634790383   -1.92891135701468
C         1.00861013523024    1.65027312072126   -2.83403485156197
C         1.88313527549263    0.67938936839661   -1.98991267609457
C         1.01836431994760   -0.14716034039988   -0.98827233399722
N        -0.05560413552377   -0.84305672711139   -1.71409735753386
N         2.97279136741519    1.36887430555231   -1.27101275453762
H         3.43354058835007   -1.19170675146115   -1.12711002373340
H         4.51534439726608   -1.51768750043791   -2.60477472920124
H         2.98188939057821   -2.28044102173273   -2.43487863584436
H         2.26147871683887   -0.53633145179171   -3.80196796133275
H         5.53783223626551    2.89484624441001   -2.71315578054124
H         4.46998917657671    3.41589311127567   -1.36937031499681
H         5.15946767003447    4.59847746277163   -4.25860202666888
H         1.82427213772484    4.46975349587850   -4.01067983667444
H         1.53255048664961    3.14670307773953   -1.44216519667571
H        -1.01625754936066    3.36888411799771   -2.29590925917588
H        -0.21666060473720    4.09803815725529   -3.71124871144363
H         0.75291514487652    5.53092664275302   -2.21090143753606
H         1.25616441440607    1.40715696664754   -3.87599532729364
H        -0.00174907331399    1.28553180752959   -2.60476880015882
H         0.54902431806651    0.49942951231574   -0.24726970608060
H         1.72079941787449   -0.85968255348781   -0.53818595381329
H         0.18991435180479   -1.76960581154867   -2.05413265889477
H        -0.87824446111864   -0.89789553953539   -1.11139453926099
H         2.87982844790914    1.96981560229722   -0.45462991262504
