35
 energy: -49.730826760313 gnorm: 0.100455827988 xtb: 6.4.1 (79825abcba525fcdf90b791dcacef51065a7a4e7)
C         3.49767251104311   -1.44198064413701   -2.95625266513121
C         2.99529040391940   -0.02129340212170   -3.16778137504854
N         4.02254116828004    1.03989450736137   -2.95678831791851
C         3.65795615484353    1.64472716304868   -1.86313223012347
C         4.23378956051457    2.98820985250340   -1.54591766345702
C         3.62665648342979    3.92239270587488   -2.59948968797556
N         4.10763797268831    4.99353441293134   -3.14808522179716
N         2.47342160482543    3.50760012982606   -3.24447518755944
C         1.21367534215211    3.01147387258150   -2.65727413657812
C         0.04656931455604    3.74472470746975   -3.36779406645536
O         0.20455084068512    5.16292349624724   -3.32089001606207
C         0.94271725708522    1.51149701999389   -2.90811807248989
C         1.81253407310689    0.41613278001348   -2.22727482319906
C         1.04998019879600   -0.76361003133390   -1.54829396816602
N        -0.06435512654762   -0.25170664140323   -0.73545101770802
N         2.57100542400853    1.12896510691985   -1.18030385433344
H         4.29095477080398   -1.78254413597457   -3.63226851811634
H         2.66562679660503   -2.14214926544138   -3.08511657011956
H         3.82251942033720   -1.48758451322035   -1.91474297426677
H         2.69312813525050    0.06787739185628   -4.22014107669734
H         5.31957134740754    3.04149069101251   -1.65952312834314
H         3.96059059828641    3.35078527975501   -0.55300509019928
H         5.04748946684735    5.33855678373861   -2.91605873385072
H         2.24784256003481    4.33159420192109   -3.80666152967679
H         1.19469897018118    3.24385239693406   -1.58386834269953
H        -0.87717672509799    3.55092159447689   -2.81303177202034
H        -0.02395829348671    3.35869479138324   -4.39245307881791
H         1.12510395759449    5.47843130371394   -3.39772777724925
H         1.11265192558554    1.34191405433212   -3.97976821632865
H        -0.08935225438599    1.31686809165814   -2.58659518020259
H         1.80959017641373   -1.23003893370124   -0.92149247247670
H         0.57935226979007   -1.43800248671310   -2.27450665211791
H         0.17851387678192    0.36830655308563    0.03331085598221
H        -0.64943652781799   -1.01968461841496   -0.40245753156145
H         2.09849810065226    1.70874326916299   -0.48976233758948
