35
 energy: -49.722610211155 gnorm: 0.111570955767 xtb: 6.4.1 (79825abcba525fcdf90b791dcacef51065a7a4e7)
C         3.70159208089643   -1.35459483109572   -2.58335440393728
C         3.01270948036394   -0.11724991031882   -3.14004352398865
N         3.92268103004798    1.06504363781790   -3.13607277280727
C         3.68318096725447    1.71037573476418   -2.03107746066155
C         4.29207964050757    3.06124314453955   -1.82722802172769
C         3.61742606208953    3.97145234725596   -2.86051595291212
N         4.26011838351836    4.97040152153271   -3.37887097395612
N         2.37836543000685    3.56661072573510   -3.32832130819897
C         1.26722867043413    2.90036636228480   -2.62163854630621
C        -0.01924240587466    3.66743564370196   -3.02317151729348
O        -0.07103326754925    5.08899607563449   -2.90098478582422
C         1.05318893256263    1.42161631639616   -3.01375696144930
C         1.88304476068693    0.40535630319024   -2.17798987478505
C         0.90270664501115   -0.63253469453361   -1.54869181659051
N        -0.07802265130634   -0.06311720021999   -0.61144278701168
N         2.75847586269169    1.09278737301396   -1.20813633938626
H         4.56668037202651   -1.56791259476347   -3.22241266976545
H         3.09652075100859   -2.24365037735140   -2.37693007290597
H         4.17237149517067   -1.07418255220850   -1.63885275232323
H         2.73913470060000   -0.29787658398423   -4.18849250895706
H         5.37453126545219    3.10404367505039   -1.97260248333638
H         4.11510895897825    3.37038270590139   -0.79519696130170
H         5.24074977427195    5.12252691008490   -3.11163044215863
H         2.21995576206615    3.86677904111587   -4.29305492537772
H         1.34472111668523    3.01440435852403   -1.53189080258238
H        -0.92599091970388    3.35346368710980   -2.49605071851598
H        -0.32592548212691    3.42670945300243   -4.04880094557750
H         0.61073066900713    5.40521837257482   -3.52393635274635
H         1.16623726454884    1.26378551964311   -4.09467311520216
H         0.02097278105460    1.13083884144788   -2.77626346583648
H         1.54288376646428   -1.29552326944401   -0.96726015848803
H         0.30844081493578   -1.10491992334388   -2.34076569887968
H        -0.51049508805741   -0.68876174159354    0.06378534922402
H        -0.80971338680648    0.46040182663678   -1.09471453379618
H         2.24951308346958    1.63697715000736   -0.51454577610584
