35
 energy: -49.722127300536 gnorm: 0.109115064913 xtb: 6.4.1 (79825abcba525fcdf90b791dcacef51065a7a4e7)
C         3.69952024341377   -1.39796979600935   -2.74783541774175
C         3.11306005750374   -0.04562471921154   -3.12560741537792
N         4.06735478493632    1.07028576485402   -2.86113177938485
C         3.65530350721790    1.71532187153749   -1.80805505621509
C         4.00758364102238    3.15471977824923   -1.60510849219206
C         3.64145865797461    3.81267621716834   -2.94091087100858
N         4.37845318782123    4.63177806009389   -3.62322753356659
N         2.35516603909560    3.62621905105753   -3.41913137319624
C         1.22208162379021    2.88726550161360   -2.82923790351222
C         0.01022575390374    3.83571649219596   -3.02022972073845
O         0.17807661216826    5.07385032204048   -2.32936311902468
C         1.00252665623164    1.40686285648339   -3.21195860391812
C         1.84795956486604    0.44451109224371   -2.32930694359882
C         1.01945940082878   -0.64874884042320   -1.58589134811358
N        -0.06274249840080   -0.06425596711530   -0.77860633029126
N         2.52867859968759    1.15778289359199   -1.23047944327768
H         4.67467664882346   -1.63838022642838   -3.18777914933569
H         2.87545132156444   -2.11108185042376   -2.85518387347019
H         3.96358237050112   -1.38981828702649   -1.68832967755932
H         2.87504888700370   -0.11531958699372   -4.19575120291989
H         5.05305647413896    3.24639136611094   -1.29973985664828
H         3.32924975663965    3.43058955939165   -0.79533506205538
H         5.33762224799096    4.70857493745164   -3.26226421824660
H         2.21176739716468    4.06760983418918   -4.33045820132430
H         1.34026299749427    2.89244585764956   -1.73719110628281
H        -0.86753695646809    3.44777203629734   -2.49329584223965
H        -0.26337120848767    4.12743286664818   -4.04197605623229
H         0.81001671493675    5.64451006819400   -2.80671667806179
H         1.23797098797680    1.23751769136655   -4.27118397089957
H        -0.07720857784708    1.29548257653551   -3.04405646441359
H         1.79631350620906   -1.16910118875211   -1.02627139106235
H         0.55417515499744   -1.34674854857029   -2.29298941714781
H        -0.33219619590761   -0.68716360232064   -0.02112542598624
H        -0.81684344154846    0.21808754231787   -1.40678544101365
H         1.93409873480301    1.42539846360756   -0.44874408948268
