35
 energy: -49.718745497748 gnorm: 0.111817473546 xtb: 6.4.1 (79825abcba525fcdf90b791dcacef51065a7a4e7)
C         3.63251096277825   -1.40502470788597   -2.62775911527678
C         2.94302713552330   -0.08827977823970   -2.95376409877885
N         4.06737099900591    0.88868749246309   -2.86851258170984
C         3.68825330037330    1.82332472513195   -2.04537745851891
C         4.23092820266091    3.21310155932821   -1.93964551668737
C         3.76653648128003    3.80211300125461   -3.27707889924352
N         4.60516575810010    4.33590422317071   -4.10859118354753
N         2.50689835953411    3.46468486936376   -3.74340915049328
C         1.33579999421543    3.09582998620516   -2.92464077147405
C         0.07822511542620    3.89609881843565   -3.35208321480338
O        -0.70383817597131    3.88097018644924   -2.15768206832620
C         0.99159177977687    1.58991482932592   -2.92807045397284
C         1.84740468524993    0.61440288327291   -2.07021710373902
C         0.90866685465840   -0.37595085852994   -1.31373361668463
N         0.20195581058262    0.33156287050748   -0.23462019063052
N         2.66428329980042    1.46855726848053   -1.18552137811941
H         4.07809180063257   -1.42709303956839   -1.62613624409298
H         4.46291273077464   -1.46346945146485   -3.33920777335970
H         3.11615762809838   -2.36403113061529   -2.70543514253202
H         2.51495757899003   -0.09981833578647   -3.96536566262737
H         5.32178784932220    3.23838213980886   -1.87598028234947
H         3.76294147640686    3.65563985147644   -1.05810011874188
H         5.55048576110338    4.58264817430143   -3.78971021029383
H         2.25978241997278    3.75151054958485   -4.69344616593733
H         1.48487454923544    3.41295914511109   -1.88360006333269
H        -0.50130375047810    3.41591370984357   -4.14719084526622
H         0.28566579054456    4.94260399079461   -3.60843183608558
H        -1.47955354735106    4.44201959148580   -2.34835584741823
H         0.91948675155496    1.28116375285973   -3.97951890011673
H        -0.03872515457074    1.60251605718066   -2.54765870824969
H         1.46035355087283   -1.24324625781943   -0.95195492100640
H         0.10674506505934   -0.64000402263618   -2.01436052939723
H        -0.59072735467377   -0.17723139181681    0.14901809326006
H         0.80607647970352    0.54300684800784    0.56119683831529
H         2.40618649514490    1.97187419423980   -0.33916945760275
