35
 energy: -49.721731826173 gnorm: 0.117874067099 xtb: 6.4.1 (79825abcba525fcdf90b791dcacef51065a7a4e7)
C         3.61517481227758   -1.35840100812830   -3.00412817954876
C         2.99256435636045    0.01984747970148   -3.17227029949552
N         3.95560563958979    1.14409386173295   -2.98651892966040
C         3.65494518101676    1.67086827103298   -1.83458991883858
C         4.09804706267947    3.07788874803115   -1.58738746530852
C         3.59858976459968    3.92162224783826   -2.76636091220490
N         4.31671346356150    4.80343485826458   -3.38793124989808
N         2.33048282719967    3.62316076749421   -3.23629218008342
C         1.19717952625624    2.93828214019864   -2.58477710866144
C         0.03917048944355    3.79295213554513   -3.16199987847598
O         0.23597603709666    5.20093403352288   -3.03046845924968
C         0.95297510845769    1.45536795086022   -2.94199030327507
C         1.84901874428484    0.43967850297025   -2.17685471636333
C         0.99191651259339   -0.70668664972924   -1.55595272629026
N        -0.08629619686024   -0.21198978389647   -0.68576059703941
N         2.66414947154938    1.04107564090871   -1.10287131804626
H         4.14098535101950   -1.67542065937971   -3.91258814000025
H         2.88068893964438   -2.15581001944673   -2.84981858697411
H         4.42419935747819   -1.48972160909549   -2.28261459785443
H         2.77920454597550    0.15575018895833   -4.24125227818750
H         5.14477624041911    3.27535078652861   -1.34236928759947
H         3.57882548228648    3.33032409391100   -0.66074872342904
H         5.26265413004906    4.85568838710895   -2.98960551282359
H         2.16186598072060    3.96636830703584   -4.18480814898448
H         1.30450807139062    3.05871843950439   -1.49825256852315
H        -0.94172484745641    3.67124592248340   -2.69119255789152
H         0.01212779820751    3.57873018253640   -4.23777726506270
H         1.16660947398966    5.43738830053465   -3.20618996255773
H         1.05873034786499    1.24903550984256   -4.01544871800445
H        -0.07124037373690    1.18664458934298   -2.65010798833918
H         1.66926699474007   -1.26179685994613   -0.90749891290504
H         0.67153333769746   -1.27558392899428   -2.43765064688781
H        -0.09846659021701   -0.58177872546596    0.26160657442673
H        -0.95473940103534   -0.35209082397404   -1.20457962716482
H         2.20618849990201    1.61969825089142   -0.40164302897263
