35
 energy: -49.719506487790 gnorm: 0.104751353957 xtb: 6.4.1 (79825abcba525fcdf90b791dcacef51065a7a4e7)
C         3.31530190266720   -1.50541564395090   -2.61111400052989
C         2.94524146962935   -0.09461268952652   -3.04490512025887
N         4.05841923615108    0.89870035654456   -3.03808972882883
C         3.86554283033689    1.76607230104187   -2.08662085565197
C         4.49148371375709    3.12079471695682   -1.98622107587297
C         3.82323761069688    3.89155733491350   -3.13107665975592
N         4.57104216989072    4.26798236104077   -4.12038820885085
N         2.45235836062550    3.95105759164213   -3.31858562508597
C         1.35459498323245    3.21612751467287   -2.66078604904048
C         0.06844156370254    3.87098742948552   -3.22788365794466
O        -1.13068556747796    3.55937784697439   -2.51834892125842
C         1.14620992033120    1.70025491224705   -2.87286481529583
C         1.94311035764215    0.63031492125351   -2.07278372823365
C         1.06237307660727   -0.37736074903708   -1.27079363107401
N        -0.08282672761414    0.23428603941596   -0.57876214482833
N         2.87871980644874    1.36925683064264   -1.20206175996164
H         3.87129989447416   -1.50087323240936   -1.66606200205624
H         3.93240937941741   -2.04445456121295   -3.33758319017730
H         2.38107545773947   -2.03464477134673   -2.41240529948237
H         2.52212895164559   -0.02906390437047   -4.05653428822999
H         5.55793697292187    3.04801954990152   -2.21436217702323
H         4.33527784386592    3.62290955140323   -1.02942725827404
H         5.55878774960764    4.31263429211233   -3.84009828722262
H         2.19294821169503    4.14906211249663   -4.28781530527397
H         1.43674847648939    3.50723923263786   -1.60481983758787
H        -0.16123070480040    3.46311951517069   -4.21759169931972
H         0.28524415453227    4.93683490996009   -3.37240048167170
H        -1.17883805618704    4.11590173974727   -1.71783049275100
H         1.17825286016217    1.57539391712272   -3.96348536066870
H         0.06564457175745    1.58448130996654   -2.71349147554101
H         1.72137497738295   -0.82421522299061   -0.52683064097002
H         0.64430416938386   -0.99571399038324   -2.07486972578230
H        -0.42198966543281   -0.36548363024149    0.16932968154094
H         0.15034803827940    1.14074537114349   -0.17015953691537
H         2.37057595222119    2.07807098263167   -0.67706098760883
