35
 energy: -49.719372982536 gnorm: 0.124491690997 xtb: 6.4.1 (79825abcba525fcdf90b791dcacef51065a7a4e7)
C         3.77847106185142   -1.25863114305908   -2.60916404552571
C         3.06184052760820   -0.04627143117833   -3.18545308310319
N         3.98665798305162    1.10034417748494   -2.94909037980207
C         3.59612500288172    1.63938633515449   -1.83027584122453
C         4.08902021220569    3.02451487348370   -1.55527004901789
C         3.66973090380794    3.79876624927341   -2.81067972829666
N         4.36186419402477    4.56905865285750   -3.58993958390375
N         2.34745837334608    3.66965987827543   -3.20175099121585
C         1.20758412184753    2.97101824885986   -2.57685618164541
C         0.02742451023135    3.79756169597517   -3.15016331244782
O         0.05085603067459    5.21548260670045   -2.98464228144944
C         0.96309308901170    1.50174850428994   -2.98641945290595
C         1.82551102099846    0.39320211689351   -2.31760565151463
C         0.90877929443438   -0.73059087205920   -1.74228936862197
N        -0.06618120085293   -0.05153163260498   -0.87463012314093
N         2.48709610123956    1.10032246544065   -1.20322558096108
H         4.77990363209309   -1.32550037843602   -3.05068301026048
H         3.22424571150428   -2.19055109420360   -2.76246618156368
H         3.85019189951564   -1.04501026379568   -1.54072129438488
H         2.75551387003721   -0.09577246890041   -4.23922157909882
H         5.17667578179429    3.10666626751524   -1.48510134550679
H         3.69861461931845    3.45125966424458   -0.62928605924955
H         5.32288706483569    4.61570670859737   -3.22875186462569
H         2.11046710525371    3.95913374784489   -4.15356274004989
H         1.17109111157144    3.10912038186630   -1.48774831895342
H        -0.89754924561663    3.56904246572303   -2.61087664592062
H        -0.03253143603911    3.50139822988204   -4.20496747478618
H         0.92124061837878    5.50618223100939   -3.31749609143609
H         0.89411663301994    1.35822811629254   -4.07302625762510
H        -0.07895046751221    1.26949865986567   -2.72829137025300
H         1.67843747863733   -1.34041963631863   -1.26987161963649
H         0.35525247550080   -1.21386395143821   -2.55698925284660
H         0.39966512241513    0.42054687241309   -0.10357524329467
H        -0.73102914877316   -0.77405171298615   -0.59367278275999
H         2.34710404254419    1.17725773189479   -0.19787158484586
