35
 energy: -49.716593109676 gnorm: 0.110917011839 xtb: 6.4.1 (79825abcba525fcdf90b791dcacef51065a7a4e7)
C         3.69006047941252   -1.19936244625982   -2.73043419515351
C         3.08811609496757    0.12036599288583   -3.19028660304982
N         3.99232376142659    1.27199128926324   -2.90384347186509
C         3.57023045007842    1.81548258771332   -1.79872679497325
C         4.09106443921245    3.17187953490659   -1.44365746147538
C         3.65368408933895    3.69839917890252   -2.81580820961825
N         4.39055311004605    4.24932998722731   -3.72857547963259
N         2.32933763591422    3.60614270693808   -3.21027625630525
C         1.14320823479331    2.95838688677464   -2.61747241363742
C         0.00575371210421    3.82780790981086   -3.21323757329381
O         0.19504506612503    5.11071362339834   -2.61593725151776
C         0.88249088917144    1.48935124456676   -3.01776263561394
C         1.83631854212570    0.48478515165750   -2.30994102007300
C         0.92984696552039   -0.67546280620078   -1.79377197028578
N         0.01880046169240   -0.19550049134404   -0.74299492222599
N         2.49644569373610    1.18842594192335   -1.19249809018275
H         4.57018367979313   -1.53186581010308   -3.29355260193900
H         3.03597603889360   -2.07495992473648   -2.79858604986988
H         3.89158441301853   -1.02555492476937   -1.67141261042518
H         2.95624395379728    0.11305111144077   -4.28082345744978
H         5.17303424000988    3.29021918242673   -1.34363642281266
H         3.59630819497915    3.48732858478921   -0.52296090707615
H         5.39705757476203    4.38135572584818   -3.56821487536468
H         2.24099884446112    3.60795698229265   -4.22914747545586
H         1.14958985454524    3.05227323775403   -1.52307554856623
H        -1.01705713647153    3.46604219712415   -3.06623034002373
H         0.04368907546440    3.92789318463235   -4.30523719396821
H         1.08208802948876    5.43924314265892   -2.85695674737503
H         0.89432954886631    1.34015304560670   -4.10572859819103
H        -0.09524688998386    1.13723476612217   -2.66213967417290
H         1.62567750756926   -1.45306035785387   -1.47975722767073
H         0.51579376506633   -1.14942382685354   -2.69243853675995
H         0.46751452089917   -0.33222844272269    0.15942277313503
H        -0.87891728200239   -0.68194954987060   -0.72142533331979
H         2.04365384247948    1.61639733822503   -0.38746797318551
