35
 energy: -49.707532646023 gnorm: 0.110356421691 xtb: 6.4.1 (79825abcba525fcdf90b791dcacef51065a7a4e7)
C         3.54420278380506   -1.55981420705061   -2.46155487171348
C         3.09707658817888   -0.26220987423773   -3.11865883638840
N         4.18000056758937    0.76299935962746   -3.07279275180914
C         3.95901599328937    1.54371210710259   -2.05471522416236
C         4.40870599385043    2.96019777618576   -1.88588929412556
C         3.58703033609591    3.90339203948616   -2.77276916354277
N         4.19510370843289    4.69930190865015   -3.59521616581153
N         2.21923275988138    4.01236797992537   -2.58498236290769
C         1.12294491224156    3.02852371449856   -2.49492462902029
C        -0.16483085932885    3.66494703888945   -3.07907422032500
O        -0.40455587730261    5.06246406023433   -2.91196933735697
C         1.36102594998882    1.65614844313258   -3.16288800719814
C         1.97747365705783    0.50250144969495   -2.32084136465957
C         0.89766814648813   -0.47585066852761   -1.76303873709365
N        -0.07985768475980    0.25665261109728   -0.94304838505015
N         2.87355289022902    1.10813775031304   -1.31595150039463
H         4.63802681366071   -1.62483554506137   -2.50154115362701
H         3.20631921260630   -2.42568273953417   -3.04056131460600
H         3.16978213187957   -1.73879690928890   -1.45154396281088
H         2.95636658582721   -0.48832578380758   -4.18439178524530
H         5.44455058756274    3.18457331978371   -2.15300114358385
H         4.22736485734956    3.35688326634076   -0.88502465376011
H         5.20186019306684    4.76740397193214   -3.40027756638985
H         1.80491850452331    4.81005913516341   -3.07277138188179
H         0.86141508434695    2.93209262951741   -1.43244494172546
H        -1.07472419572425    3.21203856548220   -2.67213979853855
H        -0.25097029513410    3.51156642748999   -4.16211333068218
H        -0.26767507304442    5.27789196313852   -1.96977948166827
H         2.13986030460698    1.89411237128349   -3.89967864331497
H         0.46155456976804    1.26295664710145   -3.65561138002764
H         1.37388653964795   -1.37711262740752   -1.37782933242786
H         0.38164342742591   -0.78377170776940   -2.68096239576642
H         0.01578036217998   -0.17412226714258   -0.02670624898634
H        -0.97221361154515   -0.12313105231629   -1.26314268112263
H         2.61112150039584    1.61511762650703   -0.47312609984968
