35
 energy: -49.723410769787 gnorm: 0.109662307871 xtb: 6.4.1 (79825abcba525fcdf90b791dcacef51065a7a4e7)
C         3.62128088548391   -1.51153775744110   -2.56192009019092
C         3.05778984901376   -0.24167285548915   -3.18273040129098
N         4.02433186599719    0.88878836790717   -3.06552987238870
C         3.73875666449059    1.62609359840709   -2.03128801240140
C         4.31860008635159    2.98628497295789   -1.80586404373543
C         3.53737095520910    3.97591790586314   -2.67857814655622
N         4.04442418603513    5.12890424035482   -2.98380651154732
N         2.34137206677694    3.64189686294088   -3.29178810980883
C         1.23134031388278    2.83766945298677   -2.74502053323617
C         0.00387102440255    3.66276546132571   -3.21103295066409
O         0.04973781805857    5.03091727828660   -2.80544349698209
C         1.14899665467858    1.35977377363386   -3.18696560706417
C         1.91299805179982    0.35163077010217   -2.28148160417499
C         0.87325102233390   -0.54936358465516   -1.54566106369283
N        -0.22845696263439    0.25961403065032   -1.00132962290000
N         2.67957380281848    1.13279265537131   -1.29067148797138
H         4.48340462482515   -1.86103327750080   -3.14232789836751
H         2.83225005087530   -2.26859681945596   -2.50331972227603
H         4.00133333931623   -1.44397326462938   -1.54047854042181
H         2.79359065657023   -0.33066385018053   -4.24527160732720
H         5.33121028936555    3.02497271554982   -2.21548701906266
H         4.21054411905484    3.32054678054545   -0.77214892017279
H         4.96159318382282    5.34715508908421   -2.57470363686365
H         2.15263980120234    4.11383551578784   -4.17923367893334
H         1.38732190980632    2.85698308051997   -1.65788823706631
H        -0.92780635194753    3.40058365616792   -2.69930493198750
H        -0.14925041472493    3.55076869510954   -4.29174099804606
H         0.95440170729104    5.33323122084028   -2.59794220075580
H         1.55559011893625    1.29486136264116   -4.20507088558350
H         0.10635554168661    1.01542798228887   -3.21435843241308
H         1.36342169705138   -1.03504547230592   -0.70228144648123
H         0.36012516428616   -1.25023446966951   -2.21585698052883
H         0.17763189777556    0.91818919321470   -0.34120301928975
H        -1.02786431353823   -0.28323609604306   -0.67078959044013
H         2.32765443388368    1.54874175830324   -0.43079208976833
