35
 energy: -49.720972758955 gnorm: 0.107657060985 xtb: 6.4.1 (79825abcba525fcdf90b791dcacef51065a7a4e7)
C         3.60244764927208   -1.50223972415968   -2.47789133463732
C         3.11499881628536   -0.15385337779727   -2.98753075592342
N         4.19367204850763    0.86205868157417   -2.81355159748451
C         3.78673582362245    1.62546039547989   -1.84069541417601
C         4.20463843949404    3.05360105026854   -1.68928004793757
C         3.72533055845768    3.72732359114105   -2.98066848826631
N         4.45188936569054    4.50667857816553   -3.71847803320655
N         2.35765021779855    3.83918974008285   -3.16760782589897
C         1.27169820708586    2.99195901691813   -2.63768771654653
C        -0.13098844187736    3.58249969170366   -2.93494805190197
O        -0.35932858025696    4.83490982899790   -2.28859243531495
C         1.30982069139697    1.58644831841996   -3.27749855704663
C         1.87588198983378    0.52276861785273   -2.29357182980744
C         0.82427169466380   -0.46975588717896   -1.70764738814667
N        -0.23884842970180    0.31401974756073   -1.05959389589833
N         2.64753190379835    1.16046171453456   -1.20846313845992
H         4.60992814897093   -1.59623447061523   -2.90029601741200
H         3.01450206503334   -2.36776105601176   -2.80090045401824
H         3.68646529205173   -1.27543561213114   -1.41306806201329
H         2.95074213132950   -0.28622732428334   -4.06558979802374
H         5.28528071894158    3.20464702884859   -1.62552650130157
H         3.73264384455294    3.61955205568811   -0.88374012713692
H         5.44795462863385    4.67728759222004   -3.53154457550432
H         2.11914991414853    4.15803590273228   -4.10960588103802
H         1.31021724464130    2.96321659218217   -1.54030444386037
H        -0.92187036449057    2.85691514817539   -2.71893776201018
H        -0.22415300171442    3.76452584983310   -4.01295833547572
H         0.45614443666188    5.36086495053206   -2.39462181660889
H         1.86748765672865    1.65499907019378   -4.22109728664238
H         0.34530181016534    1.12438063881115   -3.52774176913841
H         1.38702042253094   -1.14993812267421   -1.06881301379324
H         0.51955148643854   -1.09898953551002   -2.55315984740085
H        -0.91680023568274   -0.26388314501691   -0.56887388167057
H        -0.71168111510331    0.78628223463486   -1.83185841113517
H         2.22215173765471    1.79725058765953   -0.53778801035282
