35
 energy: -49.720821854836 gnorm: 0.123322847367 xtb: 6.4.1 (79825abcba525fcdf90b791dcacef51065a7a4e7)
C         3.59129359348128   -1.52487707625254   -2.44108267803608
C         2.91975558518758   -0.31516950494325   -3.07442994646093
N         3.98823775838705    0.69531215870727   -3.32573588586071
C         3.84570751982486    1.56086020874660   -2.36378987399470
C         4.58200370937074    2.85876796198572   -2.26152392989647
C         3.54760963481596    3.93906948447864   -2.59960630100112
N         3.98050710843310    5.15587253163908   -2.70747165820524
N         2.23350075038854    3.77563596950504   -3.00509014257242
C         1.10199118240735    2.89983091003363   -2.64376125351078
C        -0.02259919487082    3.69638299241799   -3.35469945373971
O        -0.12069373390183    5.08620443894108   -3.04289860124972
C         1.08710027546621    1.44596461685017   -3.16560665382590
C         1.87129073349483    0.48997885136719   -2.22163193466093
C         1.05147232762994   -0.52782564837843   -1.36941812286910
N        -0.11099937008595    0.20696892001354   -0.84669593420796
N         2.87158716476606    1.23917177026221   -1.43570955305287
H         4.21162657942862   -1.94336638455836   -3.24253846203466
H         2.88038285004842   -2.24118469270407   -2.01605162255794
H         4.23800423518882   -1.25593574558856   -1.60335743837312
H         2.46703416922607   -0.68379099309475   -4.00495450484257
H         5.31145846145355    2.81969105109431   -3.07456507248315
H         4.97758334413163    2.97865707245720   -1.25102041787155
H         5.00209963922887    5.11543206924466   -2.60301668124757
H         1.85094975608307    4.67212107275102   -3.31472669856624
H         1.01852578633484    2.95032885186105   -1.54966647971557
H        -0.99672579402291    3.25568675080048   -3.11913249359008
H         0.15342945010175    3.63339504195274   -4.43588665807391
H        -0.35281792310895    5.15414498336892   -2.09718738488954
H         1.63773143566196    1.46465574889460   -4.11562043796930
H         0.01952601027681    1.18769318940792   -3.16804360172973
H         1.65521084459682   -0.85781655056347   -0.52440381630265
H         0.88188488746836   -1.35525347694724   -2.06962095737707
H         0.17502829240164    0.64573749776096    0.02512219671429
H        -0.77563929726584   -0.53774250924244   -0.63070115655876
H         2.47036358282560    1.87917569181478   -0.75331076424789
