35
 energy: -49.719369472907 gnorm: 0.107239092539 xtb: 6.4.1 (79825abcba525fcdf90b791dcacef51065a7a4e7)
C         3.53522371904243   -1.38730876747460   -2.85203190314265
C         2.93034994783944   -0.03449126229535   -3.19771518593055
N         3.97776917373273    1.01613816813066   -3.03968751412107
C         3.66581236988943    1.69971954656960   -1.97656576977794
C         4.30177227652773    3.01833659491385   -1.67003848430258
C         3.59846644730485    3.95792105330896   -2.65688403194930
N         3.88941258259772    5.14020813987152   -3.10094752506892
N         2.50348020357532    3.36587741976186   -3.26392547336925
C         1.23966385093685    2.88622393690689   -2.67180408964311
C         0.13387932931771    3.79564101109364   -3.26748269057842
O         0.33541381875945    5.19855919910342   -3.09528990727387
C         0.90862774341919    1.41327961522975   -2.99909851214381
C         1.80273756249193    0.42209424028095   -2.20030515956713
C         1.05482585500752   -0.73851148660303   -1.47372486670433
N        -0.19980885506847   -0.26536859526797   -0.86830807080002
N         2.63864141624085    1.15369693589293   -1.22789622355991
H         4.45169517542414   -1.67554117971107   -3.38050121699904
H         2.80366618711907   -2.19337049563231   -2.97132204973026
H         3.75717857107402   -1.42485152473783   -1.78354032825848
H         2.61796074831862    0.01924984763324   -4.24949428836021
H         5.33473971527308    3.05681507023310   -2.02523534278136
H         4.10098276298547    3.24635880862787   -0.62139010198866
H         4.86126256055701    5.43143077419322   -2.93695191936816
H         2.31734704017434    3.98960267668788   -4.05273905065769
H         1.21673620258881    2.95090125278580   -1.57551441679928
H        -0.83274568089039    3.58386296721281   -2.79906648795607
H        -0.02569768365107    3.68514636361600   -4.34741112880634
H         1.17271399263309    5.43451471883821   -2.65243477395821
H         1.07837089182867    1.30544804728055   -4.07874188404978
H        -0.15739961438172    1.27576147685870   -2.77304700349101
H         1.76352580332523   -1.00542137420337   -0.69017726275860
H         0.93502377482089   -1.65538868144165   -2.06420293958339
H         0.03700607493374    0.53097954047045   -0.28166945008128
H        -0.85404845332298   -0.98128459729014   -0.54826135331718
H         2.17380280489928    1.64642153093900   -0.46802715928061
