35
 energy: -49.723133432055 gnorm: 0.101204013648 xtb: 6.4.1 (79825abcba525fcdf90b791dcacef51065a7a4e7)
C         3.44376017168049   -1.53995652990313   -2.86148150988567
C         2.93218833243642   -0.13502467232417   -3.14422730012177
N         4.06552105891178    0.82652342025969   -3.01436503242395
C         3.75694096204770    1.60417200573013   -2.01693361847611
C         4.39523923431145    2.92740237204696   -1.73623511258606
C         3.62158136848814    4.02765455959920   -2.47259156004416
N         3.97910920815389    5.20662694852679   -2.87488841020356
N         2.40407425949270    3.60489236596866   -2.97950220969608
C         1.09583903972519    3.01028853089251   -2.64353515846628
C         0.07444419419152    3.75064017708561   -3.54534658830591
O         0.12026974683740    5.17045577177231   -3.40227437926775
C         0.98137085073661    1.50513164762486   -2.97166826261548
C         1.83155263373655    0.46169127588695   -2.19168439925204
C         1.01553421069581   -0.67449042265395   -1.50066945308354
N        -0.05627781013014   -0.20838134960726   -0.60710171652178
N         2.69137992366384    1.19010884958247   -1.23792246485077
H         4.19357977317661   -1.88145685625008   -3.58496321296922
H         2.57979045426251   -2.21143022339535   -2.90416043416732
H         3.90338034393778   -1.57067312607184   -1.87145451181192
H         2.60527573767141   -0.09193545198478   -4.19207552543835
H         5.40955090547638    2.88597010060529   -2.14135527114910
H         4.42233898315621    3.14411495248472   -0.66652708631138
H         4.91263545247908    5.46148663515239   -2.52880625839762
H         2.30350677125361    4.14114613178086   -3.84450145018242
H         0.90066053506859    3.19496750255391   -1.57847229192495
H        -0.94361783193409    3.48332047281602   -3.24415315330426
H         0.25317427276684    3.48028362153571   -4.59362242243703
H         0.93838763230901    5.55314352474402   -3.03200357452289
H         1.29133549176151    1.47782518749769   -4.02487598200563
H        -0.05295904729434    1.15492884626066   -2.85358127629082
H         1.77084283733894   -1.20337910928085   -0.91995523302474
H         0.64967838657891   -1.22889845170461   -2.37386013647359
H         0.30241369791120   -0.22750637417109    0.34440822775312
H        -0.98505931720333   -0.58429656820789   -0.80470673727105
H         2.26598376217317    1.90926239892920   -0.65645039317326
