35
 energy: -49.720069780925 gnorm: 0.113252291653 xtb: 6.4.1 (79825abcba525fcdf90b791dcacef51065a7a4e7)
C         3.52107183971207   -1.43811214498657   -2.47159785881726
C         3.01885038187900   -0.14393863363927   -3.09479364896663
N         4.10244810718071    0.87353671496938   -2.96656769342989
C         3.73491895662301    1.69617771864883   -2.02688023165862
C         4.28045264598490    3.05277166006322   -1.71191862227334
C         3.58675789378422    3.98172625066689   -2.71548883410648
N         4.10055239390005    5.11055665373403   -3.09152333740315
N         2.46077492426650    3.48916211572463   -3.35388744316213
C         1.19879643973245    2.93198336319278   -2.82960781057252
C         0.02431719931359    3.78154156754383   -3.38049909759017
O         0.11911866022255    4.97081137425447   -2.59621855082166
C         1.03211415230426    1.43409326287732   -3.16844968409450
C         1.81838316723982    0.44221514134297   -2.26406561929346
C         0.87281165070272   -0.64145777717872   -1.65921516161892
N        -0.15010984935715   -0.05461856888691   -0.77958266865491
N         2.63555030089459    1.23560910119809   -1.32474626638787
H         4.48305874270094   -1.72107466583870   -2.91520928376831
H         2.91135548638184   -2.32404025858379   -2.67780025709657
H         3.66800796263778   -1.38267602862379   -1.39100344727981
H         2.93914861566040   -0.31243045956177   -4.17737046106564
H         5.29986401397786    2.90716077518357   -2.07834063423996
H         4.26271529784654    3.41263186146721   -0.68130714525043
H         5.07726353987665    5.25317819236353   -2.80535555514554
H         2.31959203726348    4.06973122412348   -4.18389498123572
H         1.21957967250982    3.04114076451468   -1.73680745652173
H        -0.99993302522425    3.40778894574239   -3.28126176852603
H         0.01002927608631    4.07652632235410   -4.43723897864420
H         1.03284700687359    5.31414323294576   -2.58667890049857
H         1.23491343149783    1.14349928860734   -4.20791964812745
H        -0.04527781947012    1.22043258767913   -3.16772131802279
H         1.47693745947310   -1.34940033427748   -1.09238828973948
H         0.34248314998410   -1.08139428743325   -2.51296469201799
H         0.26329239365347    0.17894440784634    0.11983017273778
H        -0.98251868359168   -0.63683174976806   -0.67413870846259
H         2.16319350443438    1.86846580715174   -0.68238738569285
