35
 energy: -49.719518610289 gnorm: 0.119873059093 xtb: 6.4.1 (79825abcba525fcdf90b791dcacef51065a7a4e7)
C         3.42864239027913   -1.49783291343916   -2.75436005977834
C         2.89542004400358   -0.10380003356411   -3.05072242682450
N         3.99815010189831    0.89911024105087   -3.11427850525956
C         3.85842271344767    1.67388855668210   -2.07744523572537
C         4.50856491812760    3.01866464721361   -1.99968069170421
C         3.67192466382919    3.80988223285934   -3.01226651831846
N         4.06646351938944    4.88054372250364   -3.62681343556079
N         2.55776371314409    3.20206040011993   -3.56652991081839
C         1.35854999395655    3.04109173360045   -2.72161418015888
C         0.31941329194941    3.99525432756814   -3.36535365796078
O        -0.80094667459936    4.37518693162362   -2.56604725728438
C         0.94259057183615    1.55765622622136   -2.83416826336051
C         1.90771843295141    0.61509182074907   -2.05953788992132
C         1.03375208912163   -0.37593798782422   -1.22987575146704
N         0.04913486203891    0.35218052899416   -0.41447750431850
N         2.84871316411550    1.34818683005956   -1.18967725249365
H         3.92212502823051   -1.62435899361606   -1.78341016443966
H         3.97546267729539   -1.84555816269164   -3.63709263249282
H         2.60063933421523   -2.20902814209333   -2.78534299962963
H         2.41738787835807   -0.15216115480916   -4.03857912175654
H         5.49791655258026    2.93207776066908   -2.45613792658053
H         4.58327155728716    3.34671004912133   -0.96103776318477
H         5.05481903881194    5.05001675236750   -3.40180269478193
H         2.30001060728685    3.80852830285060   -4.34862047322754
H         1.43332623349549    3.34205222066536   -1.66786316731524
H         0.02478099991784    3.51716213863514   -4.30516601711760
H         0.76389226278379    4.98473984390052   -3.53050871755688
H        -1.44191179221155    3.65827527160223   -2.39851024788513
H         1.06610014980547    1.20067161148859   -3.86537027157204
H        -0.08350547045950    1.43359249889311   -2.46246950451413
H         1.62091518338340   -0.89479603436606   -0.47259827760756
H         0.49820209019049   -1.03054935880274   -1.92869679169988
H         0.48991860860143    0.85221204291565    0.35368570059815
H        -0.51407228767225   -0.39062848684223    0.00268859904466
H         2.43777730250953    2.09074623417383   -0.62754673128017
