35
 energy: -49.716015852956 gnorm: 0.119303789528 xtb: 6.4.1 (79825abcba525fcdf90b791dcacef51065a7a4e7)
C         3.43706187585243   -1.34710969502657   -2.52231763429857
C         2.60625122247629   -0.13631701176423   -2.92134041091481
N         3.53045401668825    0.96182718969586   -3.32853878940029
C         3.59613464864284    1.73556704520032   -2.28362676951710
C         4.46065418673702    2.95550485570737   -2.32251984651952
C         3.57987649591556    3.87831556047644   -3.17338602654234
N         3.90806892539431    4.98796497858462   -3.75700636944209
N         2.27503201865200    3.49103104879864   -3.42912306788816
C         1.18864990456047    3.07201564137205   -2.52242193764019
C         0.07738613586362    4.06346381400210   -2.95457373367738
O         0.51248721724230    5.41929546700188   -2.85039344952499
C         0.79169524655021    1.58236867249935   -2.42418550940681
C         1.80948679782328    0.59758143757077   -1.78056596958779
C         1.16554681923136   -0.40638044127768   -0.77473378610584
N         0.05424564579912   -1.20589490778346   -1.31351785822298
N         2.90086658956063    1.36371775886723   -1.14693972323175
H         3.99896555731708   -1.17126570970737   -1.59731989024658
H         4.20277959562968   -1.36858678901560   -3.30485018456901
H         2.83496523985797   -2.24016946438534   -2.34267478531369
H         2.07062661363484   -0.36832899310796   -3.85192685630484
H         5.23720404127226    2.60416610139870   -3.00677020918964
H         4.77670797591854    3.36955409802698   -1.36301621260459
H         4.89204278358393    5.25888254837956   -3.63618964562078
H         1.96438084908843    3.86991207353802   -4.32681489277697
H         1.52966629901627    3.36661731260920   -1.52068466800134
H        -0.76410784372574    3.96562270128097   -2.26107348888452
H        -0.10519084353585    3.74833067722357   -3.98959841200858
H         1.15175067840202    5.55866265881893   -3.57481478650850
H         0.63784947426183    1.27794130921833   -3.46808476669530
H        -0.09562995451774    1.49022109503728   -1.78341435372196
H         0.86953757435949    0.06356059840676    0.16280410285211
H         2.05600674114785   -0.98511987622768   -0.49937492374031
H         0.26044599288324   -1.53356461165988   -2.25400205057314
H        -0.21944401508876   -2.00525616956894   -0.73983621922576
H         2.71686063786451    2.00223197830784   -0.37577509575230
