35
 energy: -49.717697107988 gnorm: 0.119776903851 xtb: 6.4.1 (79825abcba525fcdf90b791dcacef51065a7a4e7)
C         3.51639188874592   -1.47779701340292   -2.64259308856002
C         2.84516742805561   -0.22947675377922   -3.19634274949696
N         3.92362098141273    0.80144283678885   -3.19136946886246
C         3.76946004196817    1.57609649982314   -2.15649048496715
C         4.47178039567757    2.87885211837809   -1.94032197952328
C         3.86270867442242    3.85949931643507   -2.94962116824627
N         4.38585267774217    4.96627435664972   -3.37507873964632
N         2.57528152320042    3.69246310433807   -3.43194891703929
C         1.42642535285516    3.12522411672761   -2.69963997569313
C         0.20614048249083    4.00672802350232   -3.07177909365553
O        -0.68332728317527    4.10632415656440   -1.95940610766308
C         1.08129225546109    1.66066646407853   -3.04924765424916
C         1.79577750029805    0.50872163746788   -2.28604020748709
C         0.86839230949248   -0.48966742951739   -1.52612408333441
N        -0.16997461073631    0.26405403242017   -0.80626293875336
N         2.73494487801056    1.14856862347228   -1.34364039388451
H         4.22756772338392   -1.29829822431776   -1.82755517960486
H         3.98523862842044   -1.94408492481066   -3.51546215125500
H         2.87947192767125   -2.22943016512218   -2.17171281834993
H         2.58826848976180   -0.33842710583644   -4.25881494405689
H         5.53019095155498    2.64184563745161   -2.07545949658994
H         4.40158644821390    3.16294510466514   -0.88849596602895
H         5.36806837751756    5.15693722102402   -3.14035007543884
H         2.47355977996721    4.43245594539837   -4.13049660720363
H         1.54140192419296    3.35511214132577   -1.63170188956415
H        -0.23648575686009    3.60704579268750   -3.98990964947154
H         0.58385275744986    4.98770149593802   -3.38633244682240
H        -1.51071329534436    4.55711980717677   -2.21451966775834
H         1.27342110663070    1.45329550452533   -4.11045168200110
H         0.01137603814045    1.51089145455592   -2.85107701408077
H         1.52056710400611   -0.98477800317797   -0.80711301614663
H         0.37241070669150   -1.09105973753877   -2.29814108320955
H         0.21830176735846    0.84520181342507   -0.06740892910628
H        -0.98090966876264   -0.30806090896518   -0.56529840067215
H         2.42089569340257    1.90703937056817   -0.74168630926202
