35
 energy: -49.715930422948 gnorm: 0.134325916228 xtb: 6.4.1 (79825abcba525fcdf90b791dcacef51065a7a4e7)
C         3.69307047734619   -1.46089343625155   -2.63648048370630
C         3.10571279650196   -0.16735429860947   -3.18168862086004
N         4.16717007996758    0.85759298565006   -2.96106785415971
C         3.70959649216230    1.57034654579015   -1.97241361063847
C         4.32870802230373    2.90941858636793   -1.72595479896814
C         3.58766052875766    3.81185023103399   -2.71983001558975
N         4.10893781282329    4.93206897739941   -3.11101383532388
N         2.31777053353741    3.62202634354288   -3.23882534632436
C         1.13282751989883    2.94588557565319   -2.67610808320448
C        -0.09683999306970    3.82632375053759   -3.01871321226760
O         0.01496448652170    5.22001419945434   -2.72962386797288
C         1.01420190761373    1.51487698308039   -3.24568156510606
C         1.86875284899818    0.48110209072178   -2.45764356182073
C         0.89672225787953   -0.57396813442146   -1.84422693440468
N         0.09022208650286    0.11024639445186   -0.82152954670892
N         2.54837711855553    1.16463581031187   -1.33940857596135
H         3.79838342627588   -1.33732550476218   -1.55208303125835
H         4.72098736522129   -1.63611072298898   -2.97088720784203
H         3.06393822565572   -2.33669801730364   -2.80825537572500
H         2.86017155744267   -0.19350403711213   -4.25208112876681
H         5.36831339992861    2.77896691737651   -2.03719453191101
H         4.24592028375769    3.27784017795468   -0.70155950160525
H         5.10768052110391    5.10239849411194   -2.93868152770915
H         2.01769340047302    4.38044341483990   -3.85580416988660
H         1.15613092659699    2.88531002191065   -1.57959203161212
H        -1.08879465261016    3.45184353548267   -2.74591637724349
H        -0.01131992837603    3.88533569473408   -4.11101502455829
H         0.18336939523713    5.24443355661793   -1.76842110921465
H         1.47195402905709    1.62251490229063   -4.23812667892420
H        -0.04477170199696    1.22810679894608   -3.29824235133222
H         1.46088505612481   -1.36416936864079   -1.34950911651919
H         0.17355424258764   -0.90746095788677   -2.59887339316067
H         0.62937990339984    0.12590715994560    0.04071179477889
H        -0.63198757612184   -0.58511612118673   -0.62690358419072
H         1.96524024554830    1.68355108642533   -0.68600838297614
