35
 energy: -49.722651036890 gnorm: 0.106518013267 xtb: 6.4.1 (79825abcba525fcdf90b791dcacef51065a7a4e7)
C         3.37694806274503   -1.47599138099834   -2.33259863606263
C         2.96770459936887   -0.17728625146754   -3.01184027744175
N         4.02609039403092    0.87306903899669   -3.06139082738512
C         3.79398539031785    1.77809921832626   -2.15481704126667
C         4.35470286971356    3.15416234968571   -1.98393383792053
C         3.75838042694886    3.89231375953918   -3.18844795006223
N         4.26135246603673    4.78447968028358   -3.98261664854071
N         2.55549209684239    3.42404168202568   -3.69023557026004
C         1.41584314461504    2.99982310576853   -2.85408612660828
C         0.16406124162466    3.86934858348122   -3.13974215948610
O        -0.77059402802118    3.59455470910600   -2.09602101835606
C         1.09470268769750    1.52179904593491   -3.16806903598067
C         1.85777988243487    0.57966391423094   -2.19336585147631
C         0.86538985874886   -0.29680814357499   -1.36798392625550
N         0.32351017357752    0.48200419541140   -0.24356420152009
N         2.74226358733595    1.39806982260791   -1.34045478882571
H         3.71570935913612   -1.40100013292379   -1.29245692900192
H         4.14706368044416   -1.99204882167666   -2.91547832405070
H         2.51120259943887   -2.13849990823296   -2.39516787096883
H         2.69991300856443   -0.35778927474339   -4.06180253085270
H         5.44313794394610    3.24359980268277   -1.93946865908195
H         3.94068913678882    3.59283588102936   -1.07391616858689
H         5.23145049648505    5.09167750340377   -3.83861361773540
H         2.35062124709649    3.96521255868968   -4.53348383251238
H         1.69241318239901    3.20308441681245   -1.81065248805931
H        -0.17739104831690    3.44607450144033   -4.08994055481559
H         0.44933260037525    4.91937639456106   -3.28109696859170
H        -0.57226473714385    4.13280224191020   -1.30619676742233
H         1.39000553088901    1.21834714839071   -4.18137224531413
H         0.01006454177730    1.35877446672086   -3.10969133630542
H         1.43279045391041   -1.16446150769680   -1.03230913816816
H         0.05836777381419   -0.58196183513252   -2.05433910503411
H        -0.40418857886238    0.01261627366915    0.28984562279771
H        -0.19549783888650    1.29734284252058   -0.57348640071171
H         2.26913003360387    2.03333149633537   -0.70104825144784
