35
 energy: -49.724074550786 gnorm: 0.119253076435 xtb: 6.4.1 (79825abcba525fcdf90b791dcacef51065a7a4e7)
C         3.68976404334093   -1.33737749733189   -2.64257193830712
C         3.08049735978359   -0.01228198583648   -3.07662310475500
N         4.04640269806632    1.08562910473027   -2.78081893688391
C         3.54339250052975    1.77706894350243   -1.79912646789334
C         3.90585330636032    3.20166712854259   -1.52290716797211
C         3.62087001374339    3.82290702048525   -2.89555704828475
N         4.36012967072307    4.64675502933821   -3.56965971312092
N         2.46442857608442    3.35094449144637   -3.49380817220082
C         1.24708779042977    2.95952760713534   -2.75707132051970
C         0.03556878670918    3.86996595356880   -3.08563715490195
O         0.26174329892564    5.23029764080813   -2.71578755236937
C         0.96793543549190    1.46153453664246   -3.01076840894696
C         1.83085860748667    0.42969053767718   -2.22935098079930
C         0.91602580924096   -0.74890175845076   -1.77295458993835
N        -0.09598820919612   -0.11427846501425   -0.91412814052499
N         2.53426045987853    1.11253971077533   -1.12549421831693
H         4.76094526522137   -1.26068021555787   -2.86385455650386
H         3.23800150586915   -2.11981818299796   -3.26131199701845
H         3.51025283881983   -1.53282739790318   -1.58336340199949
H         2.99307014647281    0.05535479633869   -4.16955317859905
H         4.96730232809529    3.38913970339814   -1.34166936593995
H         3.30732814990125    3.56630902572680   -0.68578238083165
H         5.31550231509779    4.82985234516527   -3.23809367402410
H         2.23687978753709    3.84433776261564   -4.36023198333202
H         1.40013186432989    3.14133412287117   -1.68465173340217
H        -0.83602637795757    3.43533010378579   -2.58559602634343
H        -0.22608340360462    3.70840820615003   -4.13889711459059
H         1.22146397314417    5.30644145768374   -2.87705009396770
H         1.06825814497327    1.24430360971295   -4.08259687780007
H        -0.07055876854759    1.14840610065405   -2.83783714955883
H         1.35896157733564   -1.66474712105079   -1.38246962128024
H         0.37745495649573   -1.14311369319709   -2.64371235562533
H         0.45737510856534    0.18070841783723   -0.11339827460278
H        -0.73255833485888   -0.82053727327162   -0.54133858158093
H         1.95057955846727    1.76366620776214   -0.60433745192594
