35
 energy: -49.725643915100 gnorm: 0.113756879706 xtb: 6.4.1 (79825abcba525fcdf90b791dcacef51065a7a4e7)
C         3.67399116028852   -1.30227564655450   -2.49925890786759
C         3.09866801216732   -0.04254085015248   -3.12977931070723
N         4.03824132651030    1.10157878756289   -2.94518716093890
C         3.64687340679439    1.71919151595905   -1.86805480159941
C         4.03566030420224    3.13001316444714   -1.55889139907717
C         3.67214699895218    3.74027333717350   -2.91784791463795
N         4.50340982166715    4.17663023345988   -3.81129046435184
N         2.32302338367680    3.79784699390447   -3.22535496797523
C         1.16587281507113    3.03547585452382   -2.71771359542120
C        -0.10860686662656    3.86747864427851   -3.01453797219475
O        -0.00820734357422    5.18723732154745   -2.47918489193968
C         1.00583895320974    1.56330683257719   -3.15746243921429
C         1.83042628750315    0.50162206202749   -2.37462602244530
C         0.96693439640670   -0.67471955908045   -1.82244967412085
N        -0.04748543613065   -0.17390485675017   -0.88189716678346
N         2.58577008071761    1.08424016232727   -1.24787455943500
H         4.68081492812977   -1.35575422913435   -2.93021555370953
H         3.01228397868316   -2.07136700351111   -2.91130766399299
H         3.80458635153757   -1.21292855331043   -1.41883784980757
H         2.93799024687236   -0.10609338129514   -4.21461024542332
H         5.08908772330015    3.22819957507517   -1.28445152046597
H         3.37385976758759    3.49839632817157   -0.77257854192841
H         5.44177101532248    4.23976861823219   -3.39693628786983
H         2.17225634456264    4.17903117272124   -4.16230401613533
H         1.22487725263098    2.94551859204115   -1.62455941784326
H        -0.92026847517775    3.36739477368009   -2.47625445161494
H        -0.34180171145260    3.87798013560040   -4.08665233366843
H         0.93205556298172    5.42306928698588   -2.59388542197406
H         1.14070930431840    1.41820334730476   -4.23765925565861
H        -0.05745688814804    1.46536936367049   -2.90010065768740
H         1.71101453682708   -1.25554522201123   -1.27799612504368
H         0.55533932007287   -1.15111621449197   -2.72095756672238
H         0.48771012128816    0.17612520667828   -0.09104875489303
H        -0.61426236749191   -0.99051052221491   -0.64755940833131
H         1.96902012214555    1.55933538646790   -0.59201061713911
