35
 energy: -49.722820349047 gnorm: 0.125808662316 xtb: 6.4.1 (79825abcba525fcdf90b791dcacef51065a7a4e7)
C         3.64454934935175   -1.37294719755453   -2.78926834799940
C         3.01013285051903   -0.03398125078604   -3.13592425080453
N         4.10599929668308    0.94594877112521   -2.88157042699646
C         3.65524064549817    1.66313669807521   -1.89299238935193
C         4.24313309189355    3.00742365954304   -1.60242400584125
C         3.59161095286616    3.86587609774947   -2.69324962772893
N         4.06359473667038    4.96857692708059   -3.18409280119344
N         2.51621522767639    3.32726957969072   -3.37986228512895
C         1.24548817577391    3.01153992869512   -2.69907263076984
C         0.14206465085532    3.91125348465466   -3.31356744505301
O         0.30820412048008    5.27335438494051   -2.91920115281546
C         0.89342836484011    1.52102263754291   -2.90077445077406
C         1.79992179851156    0.43803880388109   -2.24857255585770
C         0.96427287861490   -0.70126917995506   -1.58678354087858
N        -0.28197140519068   -0.31115680409255   -0.90914834505864
N         2.57467832148892    1.13962281154464   -1.20593688916219
H         4.58289167833330   -1.47282405606071   -3.34767318591503
H         2.91920078643109   -2.11010822977784   -3.14927550424466
H         3.83912729912820   -1.46357137590404   -1.71862632617569
H         2.67562046617888   -0.01889041168627   -4.18214991035237
H         5.30378030382967    2.90211643539883   -1.84450877154938
H         4.06099031154368    3.21158586307928   -0.54548701481691
H         4.86691088528434    5.30040288424714   -2.63566571333869
H         2.34471290917419    3.82280844611473   -4.25789064338551
H         1.31150636705350    3.20256997691462   -1.61939258180014
H        -0.83259922273198    3.61014832313699   -2.91608334490212
H         0.08440461297743    3.92870575073878   -4.40914494828008
H         0.95284834850692    5.75811668807770   -3.46902529619397
H         0.64433781212768    1.18882118986887   -3.91746825215703
H        -0.01755302351939    1.47180673392384   -2.28912456462392
H         1.55786395596301   -1.37136087887249   -0.96543815768303
H         0.77997676635085   -1.35609146663100   -2.44755262583588
H        -0.05028956404816    0.16588192026108   -0.04130382409465
H        -0.81137296169203   -1.17515464777808   -0.78172464651470
H         2.00123826364482    1.68577889339828   -0.56630143835771
