35
 energy: -49.720454884375 gnorm: 0.122095985758 xtb: 6.4.1 (79825abcba525fcdf90b791dcacef51065a7a4e7)
C         3.53126085501368   -1.55465608940443   -2.50650679100210
C         3.03352417854810   -0.20270102980877   -2.99636409770388
N         4.10987619749301    0.83041828466345   -2.99994669500777
C         3.74398093863540    1.60888690956572   -2.02273858544015
C         4.31160561873309    2.97829359093385   -1.82353390599448
C         3.67710560279383    3.97770877941620   -2.79816265447090
N         4.36108055794130    4.94586910001045   -3.32207930913416
N         2.35099777994565    3.82275733474295   -3.16618156575675
C         1.22535608208172    3.01467851962035   -2.65839582178032
C        -0.06029152389138    3.64867186132842   -3.24983011603313
O        -0.20737696011879    4.96510174692476   -2.71707858273285
C         1.12784404882144    1.53290130081683   -3.08395337113072
C         1.89436333271435    0.51939906931072   -2.18661668127420
C         0.96683391073594   -0.60418523955423   -1.62845535559074
N        -0.27596294087061    0.02927646385780   -1.16081848505417
N         2.74291431408621    1.17532443408574   -1.17208224928821
H         4.29988653376970   -1.78053373114453   -3.25515326721064
H         2.84415026856197   -2.40219298643799   -2.59979308474666
H         3.91367280194190   -1.54376525498207   -1.48377018657747
H         2.63242446546276   -0.25257560277394   -4.01780718702914
H         5.39801986638665    3.06499093174203   -1.90632754990680
H         3.99860905295664    3.31823103694620   -0.83436774490715
H         5.27723586565178    4.93386797475358   -2.85655487784704
H         2.06965716783211    4.32941649660342   -4.00882594230829
H         1.22438628840338    3.04262132936154   -1.56031652063747
H        -0.98674550622853    3.16769636436100   -2.91971924660525
H         0.03811302569871    3.82787225236358   -4.32784825105801
H         0.71508850413123    5.28034971579367   -2.66664597334777
H         1.55453374968625    1.56054590589178   -4.09550757027663
H         0.08626978741144    1.18426670833297   -3.08259009636487
H         1.47766845060762   -1.26252201151525   -0.92625585938675
H         0.61941442111533   -1.26647961562251   -2.43116736787745
H        -0.21371241738269    0.71668833137113   -0.41383365559655
H        -0.96034659906605   -0.65896497526858   -0.84311136072434
H         2.41471031490233    1.86045741342986   -0.49449208855580
