35
 energy: -49.724356273770 gnorm: 0.117791660730 xtb: 6.4.1 (79825abcba525fcdf90b791dcacef51065a7a4e7)
C         3.66185798072137   -1.49920116350424   -2.54387284165005
C         3.07664106752255   -0.17221374088838   -3.00442685254050
N         4.10559756732373    0.90812415543977   -3.00367867649318
C         3.74009472059227    1.66106968561364   -2.00652817541709
C         4.35463157985415    2.99636480996932   -1.72996657831286
C         3.69276714965696    3.96324419046261   -2.71910858769786
N         4.13403217790847    4.98616643586530   -3.38134725612495
N         2.42126624256233    3.65161604622895   -3.17097490925101
C         1.23971628254501    2.91494247835572   -2.68193636504832
C        -0.03777804775694    3.66904882608179   -3.13355976080148
O         0.07574728571070    5.03515093717036   -2.73440692803110
C         1.03519589600260    1.44198674703357   -3.10008031275583
C         1.85792436801535    0.45029106698231   -2.22852466478124
C         0.86018315835557   -0.61275488515615   -1.67287878255664
N        -0.33289408272530   -0.00872696606171   -1.05951188900083
N         2.66240750963680    1.22047011252751   -1.25940751072706
H         4.56787281175477   -1.60245233646016   -3.15276856987507
H         2.86775749819922   -2.24270054687773   -2.66939246655195
H         3.85008869695132   -1.32572540441103   -1.48235363299603
H         2.69226062888988   -0.36273508686851   -4.01569720460598
H         5.41312652497556    3.05179301941706   -1.99676857674218
H         4.11277104880279    3.32874921612273   -0.71853289623108
H         5.09703865173050    5.27234487066664   -3.16474163366396
H         2.13338241235644    4.24320618839122   -3.95394975009035
H         1.17610867757430    3.05059965487337   -1.59376768056267
H        -0.89320267247271    3.33509794343796   -2.53744474066601
H        -0.16308349914641    3.51407182444901   -4.21254076290788
H         0.82092406393069    5.43622573855295   -3.22094349849668
H         1.24215376778750    1.30726622949035   -4.17016863985818
H        -0.03176342652527    1.21709828255555   -2.96798996298635
H         1.31747099754720   -1.17252414743203   -0.85740985727712
H         0.67708398314177   -1.32698656708460   -2.48530016633223
H        -0.01328443660713    0.46146423573146   -0.21620503629090
H        -0.88079360102728   -0.81717571533321   -0.76082840132235
H         2.24087408403143    1.95217310364333   -0.69092374680875
