35
 energy: -49.718131861603 gnorm: 0.100503015039 xtb: 6.4.1 (79825abcba525fcdf90b791dcacef51065a7a4e7)
C         3.22661914825248   -1.50545284611482   -2.88491989742814
C         2.84698290602321   -0.07649698016111   -3.24470583010040
N         4.05346500975468    0.79881990271068   -3.30876286203978
C         4.00341684422066    1.55564673177227   -2.25068121891216
C         4.77525009200589    2.81711506926809   -2.02679279774685
C         3.87659103857340    3.85589058368858   -2.70846686170598
N         4.39360218646621    4.89210251395095   -3.29036816678462
N         2.52357359330175    3.75799254222126   -2.98733889156370
C         1.29544443461696    3.12614285604689   -2.46736608114658
C         0.15441915722619    4.00571063185927   -3.04099811015931
O        -1.14602142191854    3.47382413077861   -2.78723243886543
C         1.06654200684483    1.69055364398347   -2.98982073655774
C         1.90676828371983    0.64092834298561   -2.20735139491055
C         1.07132540078362   -0.15116752803034   -1.15430062996177
N        -0.27522574156696    0.41077438383767   -0.96582438924192
N         2.94749769286930    1.30055136181859   -1.39412525921120
H         3.57519433354534   -1.64175793202812   -1.85429195882814
H         4.07130148931526   -1.67843055610836   -3.55999955355016
H         2.42431001521571   -2.22227417118056   -3.07150744256645
H         2.33662161990298   -0.02388218274006   -4.21603351714425
H         5.78904265668631    2.91402336512709   -2.42365620045470
H         4.91817688356270    2.94902013072063   -0.95248046449739
H         5.40258334748097    5.02753243165923   -3.14960837069896
H         2.41088193127132    4.44243060742023   -3.73883788209029
H         1.20571129093289    3.20126080136555   -1.37518242090343
H         0.23467563561511    4.07530904297725   -4.13065060537602
H         0.32476639326732    4.97382974957700   -2.55350807648599
H        -1.23953747657687    3.00137470312515   -1.93816615946886
H         1.47791509331809    1.77812618821103   -4.00430260611450
H         0.03688454783938    1.30960611356701   -2.95651340940666
H         1.59519230441559   -0.10868406899548   -0.19973162172226
H         0.91267561130998   -1.18851380109045   -1.47433761029790
H        -0.56487135290056    0.64912552875001   -0.02047223813516
H        -1.01435799680920   -0.14947571932670   -1.39337370447594
H         2.80464444925093    2.01670419071376   -0.68492037365744
