35
 energy: -49.717162557360 gnorm: 0.114708729875 xtb: 6.4.1 (79825abcba525fcdf90b791dcacef51065a7a4e7)
C         3.42837162467216   -1.44987430918482   -2.78335465673293
C         2.84690056333566   -0.08304097460360   -3.11372186997572
N         3.92894051639043    0.94378938012372   -3.14000840090642
C         3.72984988139071    1.68142985171083   -2.08593160272220
C         4.51140787406965    2.94197580126907   -1.89268052733412
C         3.93478113610793    3.84905490203427   -2.98631269707511
N         4.55628232597002    4.63038595450929   -3.81269207466299
N         2.55715053171020    3.88139001418574   -3.12450895244039
C         1.36595628249203    3.19759228104231   -2.58470909376359
C         0.23822870787137    4.10667421590308   -3.13827246307573
O        -1.04046814989327    3.83316962015408   -2.56505736954332
C         1.01724095312280    1.71867478986608   -2.86304739656496
C         1.82019784227193    0.60107102738469   -2.13766903439873
C         0.86809387124196   -0.48058230789625   -1.53948789477384
N         0.04583103310213    0.09324400474709   -0.46286856942206
N         2.78624273935537    1.20058762135705   -1.19591849821958
H         4.02327931439647   -1.53823906547337   -1.86653723141467
H         4.01884721812494   -1.80788620600592   -3.63324179010778
H         2.65457341594616   -2.21016909945780   -2.65871183499781
H         2.45560799262807   -0.25263747283706   -4.12606646632511
H         5.58882194179854    2.82231421949961   -2.03242021725740
H         4.40176795741843    3.47864181785418   -0.94825335340290
H         5.55600863878378    4.49534835970737   -3.61645313848129
H         2.26594777655955    4.45673303237202   -3.91828912978380
H         1.35552325587277    3.32549235391180   -1.49379543356001
H         0.23421907640480    4.05260288338106   -4.23174757118160
H         0.62211878196553    5.07679587403563   -2.79854945704920
H        -1.70863188674549    4.43833439440040   -2.93949037797908
H         1.27764147558415    1.61165471522927   -3.92455975990423
H        -0.07387818565285    1.72765030984971   -2.73733606645736
H         1.48118394856163   -1.36633459765908   -1.37515041814998
H         0.20637691951581   -0.84292771108885   -2.33605377374707
H         0.65139862231977    0.23177212076345    0.34242292840034
H        -0.61254751819749   -0.59546299869204   -0.09515205707265
H         2.45882883130095    1.85030713009740   -0.48393662637326
