35
 energy: -49.712882156275 gnorm: 0.124823422243 xtb: 6.4.1 (79825abcba525fcdf90b791dcacef51065a7a4e7)
C         3.61187955335815   -1.54851951226576   -2.80434663003346
C         3.02180697850432   -0.17742392278349   -3.09997418531874
N         4.04609080646974    0.90405042787862   -3.01548831301019
C         3.73901697544445    1.56960414012904   -1.93958295662228
C         4.36018596328032    2.92566591433155   -1.82822552856851
C         3.52777189840420    3.93496192297260   -2.62805711086091
N         3.77019407639228    5.19866427629215   -2.78275889916636
N         2.45783880652231    3.40765903278956   -3.33176491608497
C         1.18225233392513    2.88546026167947   -2.80441820479950
C         0.00888500334092    3.80430378723291   -3.23286597109506
O         0.23416900656231    5.18781614155969   -2.96159741538432
C         0.89189068542005    1.39120429211362   -3.06740246471250
C         1.84066440266095    0.44975308002724   -2.27150692562536
C         0.95912764885093   -0.60933575004512   -1.53971436356469
N         0.11231441604322    0.05088467626605   -0.53397169705248
N         2.61512049407435    1.16802452619416   -1.24007063473214
H         4.31713189611130   -1.57506897424508   -3.64350808313945
H         2.92844815832850   -2.40403156462998   -2.81710297973439
H         4.22795064865698   -1.45469976007483   -1.90768508840419
H         2.87284198156295   -0.15537238699137   -4.18810908931477
H         5.28538906890481    3.03704786844506   -2.39941763192375
H         4.51267268886859    3.10521913298195   -0.76216622982999
H         4.71470747650643    5.54195055512856   -2.56770884717174
H         2.37557337539205    3.93279716575302   -4.20547421311646
H         1.34737816824707    3.10942492897715   -1.74181142210905
H        -0.93495948070229    3.48716674405529   -2.77766352127156
H        -0.12051648501711    3.75384970619263   -4.32127258760661
H         1.17534467140319    5.38809407812834   -3.12574483455866
H         0.92281028116348    1.15577241864517   -4.13963658315829
H        -0.10624633629418    1.12023539871715   -2.69764144655498
H         1.68821623445218   -1.26622053851505   -1.06603137593770
H         0.35588876408935   -1.14163059081444   -2.28566728194426
H        -0.42500423485527   -0.65126167331861   -0.03130310897840
H        -0.61049503835175    0.67540033615020   -0.89524966018691
H         2.04111488459790    1.71162463258061   -0.59876730728523
