35
 energy: -49.714815594821 gnorm: 0.126156173802 xtb: 6.4.1 (79825abcba525fcdf90b791dcacef51065a7a4e7)
C         3.55825921191128   -1.38355883476494   -2.74205729743197
C         2.85207408767013   -0.05901196950056   -2.99178237234100
N         3.79628663046036    1.09005392188776   -3.11007125380406
C         3.84833070553917    1.76681956683873   -1.99916706659232
C         4.40844839362612    3.15308451511129   -2.04030856778220
C         3.65084678461343    3.81004036009871   -3.20038228661782
N         4.11863478910211    4.39390549562034   -4.25864535300676
N         2.28193624768936    3.67670468082653   -3.36260251311435
C         1.25900915196819    3.12994091733667   -2.45014620022581
C        -0.05676744993092    3.72963172202301   -3.01026648308425
O        -0.05207460675607    5.15566632801934   -2.94062995486511
C         0.99070563680793    1.60940281662304   -2.49756588414458
C         1.94897231031995    0.56118284351201   -1.86281275790965
C         1.23716225017744   -0.55065526995798   -1.03128465468956
N        -0.22468230528752   -0.39868758080879   -0.96481448665901
N         2.97624284699340    1.25080910515576   -1.05740118640176
H         3.92202586097267   -1.33278035470476   -1.70891981689207
H         4.37150700498420   -1.53418256013287   -3.45974985063292
H         2.90272514162184   -2.23831214192435   -2.92099732014403
H         2.33784752979682   -0.16858784031281   -3.95629188193051
H         5.45662549169458    3.32525750816618   -2.29789035073170
H         4.15887362536766    3.71271344064126   -1.13670361380572
H         5.12386388652563    4.60157525570668   -4.30949118144092
H         1.93614748425662    3.94799423890207   -4.28604049382469
H         1.27081352096298    3.51861115062873   -1.42284099517097
H        -0.85693484368663    3.46523383113920   -2.31137199874229
H        -0.30925670326661    3.48578063728215   -4.04983618192198
H         0.88743049818569    5.41997565226802   -2.95901476207623
H         0.74499390705168    1.34050578060255   -3.53361141019556
H         0.01774689733005    1.42385468533487   -2.02285749321354
H         1.53118157108623   -0.52071991753611    0.01757180319819
H         1.47765207854028   -1.55076093875662   -1.41290487489734
H        -0.72936494984164   -1.07556452500524   -1.53185025893321
H        -0.49346282329783   -0.56473344742302    0.00636051716678
H         2.58803309504793    1.93685790076004   -0.41328649999772
