35
 energy: -49.719712197528 gnorm: 0.106824266941 xtb: 6.4.1 (79825abcba525fcdf90b791dcacef51065a7a4e7)
C         3.80737467154250   -1.28362509513511   -2.81223517765398
C         2.98346718616490   -0.07609132547724   -3.23475511650524
N         3.90198117058170    1.09523728805801   -3.13374348768482
C         3.65223739798735    1.69238213177299   -2.00419733936627
C         4.15273102507904    3.05040128460857   -1.62677843023047
C         3.71042742190891    3.94612921377172   -2.79011896220608
N         4.36519574088446    4.83477135136391   -3.46926430766480
N         2.39632577280375    3.72128933314880   -3.16507726445723
C         1.29039312683518    2.98318746833889   -2.52474486284864
C        -0.02010138541750    3.69505286635514   -2.94957851666897
O         0.03677563109785    5.11693554264448   -2.83355860736537
C         1.02992537023754    1.51943686620768   -2.94410418890393
C         1.83449305779812    0.37699823471156   -2.26039628745709
C         0.88861090879191   -0.70261127535015   -1.64880262175745
N        -0.08146817683051   -0.16535708349680   -0.68194872087282
N         2.71115747075966    1.00934000485114   -1.25483160145877
H         4.70437652539120   -1.53086152602787   -3.39235542342914
H         3.13160375273813   -2.14522486658177   -2.80120870428088
H         4.10615341754505   -1.19561351569058   -1.76565365152386
H         2.58179047527664   -0.14080330052920   -4.25513867272444
H         5.21702016369622    3.21230804817247   -1.43772299279092
H         3.63400985489673    3.46452370786791   -0.75994224689847
H         5.35725718277051    4.88042555716134   -3.20482650156004
H         2.26462687842263    3.80126976452569   -4.17609859372715
H         1.41798058195233    3.15569798299136   -1.44746985459858
H        -0.90711649033026    3.44148640407047   -2.36005680571878
H        -0.20619788940483    3.39966712713531   -3.98978748150878
H         0.53120039458568    5.47212365314600   -3.59661353359966
H         1.17752895646127    1.41961715634554   -4.02776438197206
H        -0.02638140916214    1.21880447720274   -2.92794807716709
H         1.52182126263350   -1.23392567412315   -0.93873711540672
H         0.50809193825828   -1.33350214798979   -2.46173725571653
H        -0.53628387762470   -0.88781652304081   -0.12914534458207
H        -0.89513723979356    0.35919216482707   -1.00719604572688
H         2.19550939487268    1.38753681081439   -0.46279137460252
