35
 energy: -49.717067343259 gnorm: 0.125713454447 xtb: 6.4.1 (79825abcba525fcdf90b791dcacef51065a7a4e7)
C         3.47015733052270   -1.31917580422372   -2.71307119105372
C         2.92902661096078    0.05519156069356   -3.07882567127142
N         4.09330542871071    0.96110088017549   -2.85596887858653
C         3.79594707295465    1.77341551150013   -1.88306015520860
C         4.45192863373926    3.11676524742836   -1.83557719611336
C         3.86143939452299    3.70906724255697   -3.12080986967581
N         4.65556380655568    4.15602717484145   -4.04235100774173
N         2.50848360031770    3.82020083944168   -3.39498099316831
C         1.38316379940780    3.24320853361816   -2.63429563319856
C         0.18348651172922    4.19334171130534   -2.88460181595801
O        -0.75691465356685    3.96334563371217   -1.83522418358341
C         1.11197193717225    1.77857106184841   -3.04364094284687
C         1.79678863933665    0.67898168303510   -2.18231583559307
C         0.90165986676288   -0.47659105429900   -1.63670365502421
N        -0.31062785857276   -0.05247102634161   -0.91908075646125
N         2.71327334612391    1.26789674464641   -1.18592647793052
H         3.54916315120073   -1.48171626921664   -1.63158316139551
H         4.40223806255036   -1.49056782207471   -3.26169890372793
H         2.70985039371549   -1.98236832852680   -3.13075134387983
H         2.67203369491826    0.05031753292904   -4.14683564626336
H         5.50068860959163    2.87654325563186   -2.02809487721189
H         4.16480114475089    3.70517942627448   -0.96190645378430
H         5.64348926287102    4.02662406723586   -3.79044686169737
H         2.36703223266975    3.99088972132404   -4.39336088925034
H         1.58167733834904    3.33449591099735   -1.55781113487405
H        -0.26126410201022    4.00044559206829   -3.86624104280294
H         0.49522327399292    5.24054392337032   -2.78406799835795
H        -1.61279983071679    3.96062850626657   -2.30460722898087
H         1.38884535757032    1.74491186654453   -4.10584542756495
H         0.02569307774726    1.62200983608546   -2.99991805024252
H         1.57412156986302   -1.15151429552533   -1.10782065396837
H         0.58436264505817   -1.07540209660468   -2.49950636014675
H        -0.13808077589821    0.23419550374155    0.04135994281183
H        -0.84598516371629   -0.91857667217384   -0.84003234683911
H         2.29879864208362    1.82471486052913   -0.44133411820907
