35
 energy: -49.720067754224 gnorm: 0.117726524672 xtb: 6.4.1 (79825abcba525fcdf90b791dcacef51065a7a4e7)
C         3.81996681921994   -1.33250458213675   -2.55134168473390
C         3.12507929166817   -0.12257101109781   -3.15852907887348
N         3.96161529485676    1.10836266432613   -3.05416520023179
C         3.70030207806886    1.65391922717429   -1.90138079472711
C         4.20291510801409    3.02626434858205   -1.58325506109941
C         3.63039399073638    3.81835135985045   -2.76483872370651
N         4.41572271236836    4.50354968731679   -3.53516779483187
N         2.29844513814618    3.74993321195155   -3.13798892239063
C         1.17136371595401    2.98379062422289   -2.57175576580759
C        -0.07732631254937    3.74045958436859   -3.09411306478930
O        -0.16306374277084    5.11364357655035   -2.71271986031587
C         1.02477653857530    1.51740874400781   -3.03490576995312
C         1.88611271985854    0.41624081665934   -2.35264417362699
C         0.85273926122050   -0.60960518956914   -1.79221946325233
N        -0.12332213896652    0.14470212071961   -0.99045477648485
N         2.65881149521780    1.01918933686526   -1.24858500058506
H         4.77063082248798   -1.52365871731174   -3.06317733639392
H         3.20303544332433   -2.23692344664183   -2.52758719562089
H         4.14739942566455   -1.01144041609943   -1.56035563031375
H         2.90303565943800   -0.42855308458478   -4.18992910689280
H         5.29225137350575    2.95229280608662   -1.63367193107333
H         3.90584759167159    3.28888043783221   -0.56602466173035
H         5.43220484791296    4.49489531069145   -3.38388417317083
H         2.20558333338011    4.31317646041285   -3.98654023196743
H         1.19443704987724    3.04699035275583   -1.47538297329577
H        -0.95031625889818    3.19790567172837   -2.71708334884737
H        -0.19688611147163    3.59033897353048   -4.17443180854383
H         0.67761713176788    5.49162538451891   -3.03404941418922
H         1.01845675735324    1.46432443324603   -4.13181612526557
H        -0.05475556988287    1.38205039117886   -2.88419602988262
H         1.34300569860490   -1.38423832717195   -1.20313059965354
H         0.38063569277009   -1.06431840979704   -2.67201195322537
H         0.36977928679929    0.48433215326492   -0.16832402891278
H        -0.88282520450505   -0.50922097719820   -0.79415204067692
H         2.08458867256303    1.43177945041690   -0.51626605243475
