35
 energy: -49.713846834843 gnorm: 0.119876344702 xtb: 6.4.1 (79825abcba525fcdf90b791dcacef51065a7a4e7)
C         3.56038501178138   -1.51443759353750   -2.80625634606191
C         3.06617965252905   -0.10200304579624   -3.08243405657509
N         4.08758009614481    0.96201394021491   -2.85773208791915
C         3.65257336389620    1.65606423599936   -1.84585673033033
C         3.97044531367749    3.08031623048810   -1.51780398005489
C         3.68092276024204    3.84062547363507   -2.81758423708380
N         4.35240081881142    4.81775777153054   -3.34100995077442
N         2.52497699060725    3.53809858588541   -3.51778184161568
C         1.30922119382952    2.94451496362073   -2.92828776155701
C         0.11550108118043    3.85404211154910   -3.31870350944851
O        -0.11601831481242    4.90781083953454   -2.38360127978109
C         1.07831052751578    1.43900869129194   -3.18597484332026
C         1.83975145833774    0.44492924606520   -2.26295511131018
C         0.82743988225486   -0.57335269050574   -1.65252599041062
N        -0.00586978822094    0.03487793306611   -0.60364445823725
N         2.54727522477177    1.15692140041005   -1.18034981735762
H         4.57047906422819   -1.70617441276968   -3.18733989369737
H         2.87828468537359   -2.16909523421783   -3.35880009600100
H         3.62229899519705   -1.79153421403148   -1.75186942567816
H         2.83153106751715   -0.15020692785895   -4.15450254251201
H         4.99100327659042    3.30314858526397   -1.19612974726350
H         3.25743106671398    3.54103676208706   -0.83127555399359
H         5.24774374432774    5.14595883931023   -2.95780940777156
H         2.45702556267530    3.89720089625531   -4.47294345780563
H         1.44314108289166    3.02833513418481   -1.84127372078153
H        -0.77167880439318    3.22952610113897   -3.17200928744784
H         0.21553958070471    4.09292909887273   -4.38493267017436
H         0.60807917431249    5.55778466265809   -2.46160201127630
H         1.31137137750701    1.26637557756669   -4.24519655878673
H        -0.01566100838296    1.40568124816502   -3.09356044091354
H         1.50492178565788   -1.36407749656024   -1.33125365515940
H         0.25379205162090   -0.85189104405056   -2.54528870480604
H         0.57829906556454    0.19034733895139    0.21426296482070
H        -0.65052968203117   -0.63782500308073   -0.18545853807020
H         1.99657760990700    1.93847972179746   -0.83084699658717
