35
 energy: -49.724763007026 gnorm: 0.117967983083 xtb: 6.4.1 (79825abcba525fcdf90b791dcacef51065a7a4e7)
C         3.65507268782675   -1.34529479197236   -2.76541542572442
C         3.04702094059705   -0.02124471053660   -3.20433325429743
N         4.07566634818834    1.03347463953649   -2.96909360909810
C         3.63036782131127    1.67589526443496   -1.92802042536292
C         4.07769806188935    3.05070954556157   -1.54469774040653
C         3.60950488351537    3.82115109446636   -2.78507556844968
N         4.41347891942124    4.65845242354568   -3.36144093637087
N         2.37595860095794    3.59482553411376   -3.37257036560563
C         1.23552926936333    2.97688145313083   -2.66867193214107
C        -0.03819069301347    3.73799893195970   -3.11919326403518
O         0.02533880123508    5.11567989432112   -2.74986261748607
C         0.91506436655930    1.52361531383777   -3.08290771420458
C         1.80281652053267    0.46232568079528   -2.37191401622580
C         1.02252894594953   -0.67873422923748   -1.64842933521909
N         0.22265472939349   -0.09830460628175   -0.55856482821930
N         2.55760455489987    1.09748320748927   -1.27353936937966
H         4.60428000791116   -1.62981921181024   -3.23480757095214
H         2.96375126067092   -2.16925440322493   -2.97110284761821
H         3.76652286710659   -1.47885857716142   -1.68741392965061
H         2.72963827511161   -0.05515810896449   -4.25544339112391
H         5.16626502960369    3.14874513885935   -1.53585936231365
H         3.55123423241348    3.50561210607416   -0.70334555795215
H         5.33990674483519    4.61102870003389   -2.91908356740193
H         2.17981598562288    4.16324441308167   -4.19981496806613
H         1.32484026156091    3.06712033656574   -1.57759890147562
H        -0.91094434130640    3.40117744814539   -2.55044028562188
H        -0.13997612980071    3.68071367858712   -4.21019163826467
H         0.73078807044916    5.57009742779466   -3.24857425141744
H         0.89066957760524    1.47252345223390   -4.17965959834452
H        -0.13767013475926    1.46957981993290   -2.77427347653216
H         1.76739790695812   -1.30997376816239   -1.16453861892956
H         0.47479493859862   -1.29651236206469   -2.37093769101482
H        -0.19086680441281   -0.86753379074008   -0.03733269347715
H        -0.54880884135088    0.47623303709425   -0.90170552159862
H         2.14620806339868    1.71790210180233   -0.57921466183648
