35
 energy: -49.720600394173 gnorm: 0.112563973984 xtb: 6.4.1 (79825abcba525fcdf90b791dcacef51065a7a4e7)
C         3.72006611242863   -1.45440152858920   -2.64366655896458
C         3.08258573863330   -0.21192312596204   -3.24810898859702
N         4.10749834212507    0.86931413341839   -3.16834582254479
C         3.72918406733287    1.58868427143495   -2.15138301636932
C         4.20378786459591    2.96738334475834   -1.81807376052133
C         3.55381083425827    3.94523800360174   -2.80430513820135
N         4.05214311781350    5.11515840644281   -3.05449706448006
N         2.30183971017638    3.64400985853208   -3.31404993532330
C         1.13163781439837    2.94456922277206   -2.74896825986894
C        -0.13013242835027    3.80544173009995   -3.01629990957747
O         0.19488096808394    5.13236372436133   -2.60146226000745
C         1.05961962163829    1.46251651178991   -3.17862472432315
C         1.90418188411863    0.40664736008430   -2.40933503087078
C         0.94574719241825   -0.57745161532109   -1.66957240582530
N         0.12920533579916    0.06385941584658   -0.62722815312660
N         2.68612089321250    1.11439648359648   -1.37627184629346
H         3.92757944887736   -1.34840660291647   -1.57222781872841
H         4.70917310581429   -1.55099057372963   -3.10353610331064
H         3.12845382659015   -2.36803372850256   -2.73095215041082
H         2.70606046170557   -0.40419409289713   -4.26200001806370
H         5.29229600843802    3.06575941649476   -1.80627073580260
H         3.73636843586751    3.08749507493708   -0.83875447249956
H         5.03090730428017    5.28433262000096   -2.79068213885499
H         1.96205696738645    4.41258883844714   -3.89692183002394
H         1.21234395256632    3.06559893765011   -1.66020831304581
H        -0.97295936286861    3.37779544138241   -2.46367978377072
H        -0.34654610704232    3.74564690167534   -4.09031528630123
H         0.69591856699730    5.18323639763216   -1.76525621132491
H         1.44826816777280    1.40693333014894   -4.20426259396149
H         0.06228063121250    1.00236471324230   -3.17899064905707
H         1.53302495907648   -1.36388123246869   -1.19620505354507
H         0.30621321563835   -0.95820972517469   -2.47561227757525
H        -0.14195986000627   -0.56381829677067    0.12569061022623
H        -0.71077572328320    0.43886137168167   -1.07085011018802
H         2.11303611138256    1.66558832045583   -0.74065019230148
