35
 energy: -49.721395509589 gnorm: 0.102848080830 xtb: 6.4.1 (79825abcba525fcdf90b791dcacef51065a7a4e7)
C         3.59491380058368   -1.46645350290580   -2.78492597933136
C         3.01680757492576   -0.10286514441279   -3.13407407259931
N         4.04013513860975    0.97515902833155   -3.00544065908923
C         3.75614910138587    1.64340172028145   -1.92487042653922
C         4.23532513536532    3.03731226203220   -1.67078654727734
C         3.59920474302021    3.94660857915274   -2.72901771140578
N         4.03606449502342    5.10588316864775   -3.10964977489408
N         2.44522063287223    3.53338673623056   -3.37367126296946
C         1.23189383789813    2.97067706188826   -2.74989016398453
C         0.07569107137770    3.82032036302527   -3.33805107312157
O         0.22019224489121    5.21866097543939   -3.08863395798340
C         0.84618417676748    1.48787210150128   -2.94683939476834
C         1.80282445011200    0.44678471791742   -2.29804969011986
C         0.96892939241563   -0.71026452184487   -1.66547352219267
N         0.01316675418051   -0.16536847712840   -0.68868898086427
N         2.61161826630594    1.17796021911837   -1.30266441250675
H         3.59990068627218   -1.69398044348317   -1.71231967083523
H         4.63584017149798   -1.48784199908743   -3.12427373365018
H         3.15297799536770   -2.32864813695223   -3.28857348715742
H         2.57786667763094   -0.18920104457169   -4.13736436429028
H         5.31530880404807    3.09354428867900   -1.82934366656607
H         4.04798416528705    3.31061409109657   -0.63050607973058
H         4.88209511742906    5.50617286906063   -2.68515254760955
H         2.16047745696480    4.20376505896912   -4.09159871418603
H         1.17827436915617    3.20761777254389   -1.67865539469795
H        -0.82986756346635    3.44441182454917   -2.85093309373439
H         0.08086538169487    3.62804263728967   -4.41829263638768
H         0.67079612914259    5.35062124910792   -2.23282446658214
H         0.60929584840046    1.17889213613784   -3.97372082899781
H        -0.09015280665356    1.27778929583835   -2.41245831577558
H         1.68571966707934   -1.41379045743900   -1.24273682800996
H         0.47282794342252   -1.30175167283847   -2.44502916288153
H         0.53508690761757    0.33630998464020    0.02567409966555
H        -0.57060732405053   -0.78754536257660   -0.12735233670626
H         2.15102641434098    1.53718540942712   -0.46895831096812
