35
 energy: -49.719373178387 gnorm: 0.135772872869 xtb: 6.4.1 (79825abcba525fcdf90b791dcacef51065a7a4e7)
C         3.71123412219401   -1.34983816760120   -2.72918992370869
C         3.07367961547911    0.00280767147569   -3.01089525726698
N         4.09085369912914    1.07216888727722   -2.79247944673190
C         3.57476549433270    1.75014733412916   -1.80818954583345
C         4.01409324292333    3.16424900835377   -1.59732817302087
C         3.67335630328169    3.76249774110482   -2.96748107188799
N         4.38368870672933    4.48592373720703   -3.77477748252003
N         2.37910041610615    3.56714998926007   -3.41997502642647
C         1.25914115274853    2.96041328567661   -2.67467726023108
C         0.03570580385381    3.87306728975371   -2.94835664633385
O         0.32893504467253    5.19656398867106   -2.50022826477422
C         0.98517016383972    1.47002737015324   -2.97461258452220
C         1.83661110772957    0.45989109532332   -2.15325720608281
C         1.03427073601038   -0.76755054061206   -1.62040312162953
N        -0.31467692952388   -0.31179014244767   -1.25009970297757
N         2.52211979364527    1.21622007559829   -1.08667329667737
H         4.52475073708120   -1.62774960950635   -3.40980260228773
H         2.92737496903128   -2.11298195267703   -2.77734037764287
H         4.03741840992958   -1.40464521912952   -1.68854221408754
H         2.93139360863160    0.25862278397148   -4.06968122636418
H         5.06282062025148    3.31772536050329   -1.33033936394429
H         3.39092000363294    3.69571290124854   -0.87540349216168
H         5.30155070727103    4.70275001339883   -3.36647211033190
H         2.19639609797249    3.72034937681082   -4.41448729805894
H         1.48679321943428    3.19499192421485   -1.62600797554709
H        -0.79876280959995    3.58266967446136   -2.30185920445904
H        -0.33075932726148    3.94362059158660   -3.98017293342312
H         0.65272306131980    5.78526795759837   -3.20836399671974
H         1.08170714648559    1.34333116373387   -4.06121226646028
H        -0.07906789368655    1.30942277683685   -2.75545881507773
H         1.72032678572187   -1.21355859239374   -0.90078706768392
H         0.83212483322801   -1.49979532788223   -2.41200611736475
H        -0.20509403994892   -0.04475421454243   -0.27486642633917
H        -0.92073386495983   -1.13267984217291   -1.29288028061408
H         2.00508454723423    1.86482389951187   -0.49655372420308
