35
 energy: -49.719238297387 gnorm: 0.105628831264 xtb: 6.4.1 (79825abcba525fcdf90b791dcacef51065a7a4e7)
C         3.69762096556736   -1.32739971096067   -2.75628836900697
C         3.01715574981675   -0.03888364039467   -3.19466935199794
N         3.99126191026540    1.07852107767506   -3.02612882964012
C         3.64868861036794    1.66585241164478   -1.91594240776800
C         4.18581753911725    3.00855622956353   -1.53411265342623
C         3.73543367430142    3.75546215373856   -2.79530579305366
N         4.47363622932946    4.49324577227434   -3.56366582584422
N         2.39503500072053    3.69149397795712   -3.13772268331369
C         1.17070108764260    3.06131729425270   -2.60688298042607
C        -0.09454027717539    3.75184081874367   -3.17869884771156
O        -0.19012606424682    5.11616003249662   -2.76889109003197
C         1.03031948937417    1.57200049941998   -2.99224000851021
C         1.85245991003462    0.46845665264997   -2.26682438806199
C         0.89840362309834   -0.63360417206851   -1.71046557585738
N        -0.04559487123929   -0.12152605685838   -0.70490860218901
N         2.62375231969805    1.10085774762269   -1.17836959049243
H         4.66211965353365   -1.57735136200252   -3.21404827911651
H         3.05799427887702   -2.19388872275927   -2.95432012816133
H         3.96680540558402   -1.11955001375251   -1.71865359985518
H         2.63536240682587   -0.05607102947134   -4.22454937812006
H         5.26979418175357    3.08868408484557   -1.41904172791633
H         3.76959345730152    3.39999920928945   -0.60378802186510
H         5.45339579655369    4.70985155233616   -3.34151568085960
H         2.46534085496129    3.98205600058878   -4.11574947343866
H         1.26941975553372    3.10607064361009   -1.51380857699419
H        -1.02054608200037    3.25025697827185   -2.87944228037083
H        -0.00973461806420    3.67525398876652   -4.26996498874663
H         0.59698753849473    5.59110301959065   -3.09714190289870
H         1.19600718543412    1.51769655304042   -4.07652266930946
H         0.01592660626536    1.16141205308425   -2.89817042657517
H         1.59416974229739   -1.30769650041331   -1.21151426280495
H         0.46012909018848   -1.11030268598150   -2.59610358107646
H         0.29151877660214   -0.29574868588685    0.23870011024859
H        -1.05778835919528   -0.13988493258136   -0.83952797903782
H         2.12454173637693    1.70371435018401   -0.52751921695607
