35
 energy: -49.722040618010 gnorm: 0.111396838588 xtb: 6.4.1 (79825abcba525fcdf90b791dcacef51065a7a4e7)
C         3.70662224549827   -1.42694735616744   -2.83337779419056
C         3.01165383598643   -0.11795398949530   -3.17839910991639
N         3.96138744437736    1.02898299031320   -3.08661872441360
C         3.71539496778708    1.64085968993558   -1.96415579910596
C         4.22359465456732    2.99564380566440   -1.58541049816180
C         3.59207748190929    3.90435446469108   -2.64689681147132
N         4.20945192803244    4.96699081126324   -3.05835470306391
N         2.40446254644171    3.55744552786252   -3.26917874525772
C         1.21596978146176    2.95082316183734   -2.63878105702477
C        -0.03823123160912    3.76412314752281   -3.05127928334990
O         0.19872534521709    5.17107839428004   -3.10395250881782
C         1.00825729180756    1.49402098778659   -3.10873265838464
C         1.85027960708694    0.46992585953325   -2.29498866798299
C         0.92005475213896   -0.63006002693329   -1.69581478717742
N        -0.14774939678394   -0.02536447938885   -0.88424866490547
N         2.70362911099212    1.04229872509373   -1.23492222370105
H         4.17666165924549   -1.45652068421946   -1.84319294075636
H         4.46482955754474   -1.50501718832176   -3.61961494354917
H         3.15593687861129   -2.36488428273196   -2.93016419018671
H         2.60898736938166   -0.16930659140562   -4.19915228852075
H         5.28189872523281    3.00021220505890   -1.85861147320650
H         4.14983921727826    3.31795851368767   -0.54490708829148
H         5.19436526282357    5.17495526591352   -2.85124587724824
H         2.06461129307404    4.33783529917705   -3.83609897162206
H         1.30842046953191    2.96781797947136   -1.54437530950629
H        -0.88704001494281    3.52640999484699   -2.40193831146504
H        -0.51300394003261    3.61378052517698   -4.02898440143174
H         0.27508058986500    5.52875042049613   -2.19890673178821
H         1.23149185169901    1.49437003327882   -4.18401700131168
H        -0.02938047636852    1.25207526429157   -2.84190873008809
H         1.59935988367077   -1.34249006594286   -1.22844839939113
H         0.54746173232568   -1.10567495041370   -2.61159074384233
H         0.18344424051051    0.28090382244856    0.02729235994572
H        -0.91137905498942   -0.67608743170373   -0.69339670828006
H         2.26914417954493    1.47176087903480   -0.42065041460493
