35
 energy: -49.722852154452 gnorm: 0.110449146785 xtb: 6.4.1 (79825abcba525fcdf90b791dcacef51065a7a4e7)
C         3.68601710822857   -1.34662836326872   -2.28918161981575
C         3.13650049746999   -0.16353663780643   -3.07264183767256
N         4.10298557464757    0.96972969608996   -2.98606226466893
C         3.68701566756553    1.66495639586189   -1.96701501229033
C         4.10045367063254    3.05238389156907   -1.59115743213170
C         3.60122531730106    3.82290516924090   -2.81932281223521
N         4.44114794190390    4.32804838271102   -3.66726451214085
N         2.25894794330415    3.97456771893244   -3.12477290133505
C         1.21135645879994    2.99346238720001   -2.78141978582995
C        -0.11522950283859    3.71936875933255   -3.12472931521064
O        -0.22618292572086    4.91444104370929   -2.35146511671944
C         1.31175561387474    1.55301458649584   -3.33032927510120
C         1.89237491204989    0.48431288702497   -2.36042744636616
C         0.81163609806548   -0.51665530555613   -1.84626518466165
N         0.01303007562248    0.16364600586505   -0.81479995683369
N         2.65985230770596    1.07965422844499   -1.24862527547595
H         4.68986219675717   -1.46840349429914   -2.71314334237905
H         2.99621459568596   -2.17333310949512   -2.48886597290167
H         3.76832313181515   -1.31190510951641   -1.20089504167583
H         2.92694368671670   -0.48422476851589   -4.10218517373860
H         5.18842638372240    3.12576665021428   -1.66597384366410
H         3.75817318271569    3.28446972398442   -0.58073463790333
H         5.41323154960631    4.20814964566761   -3.35601651112286
H         2.10763658034292    4.32846198782379   -4.07227979567012
H         1.17854640793273    2.89672840328640   -1.68774436774221
H        -0.98798707105075    3.13790972685183   -2.81036136680077
H        -0.17353698329511    3.85794370474607   -4.21161318385873
H         0.63662274325212    5.37098476684952   -2.35025463725781
H         1.71339365433072    1.38465712764638   -4.33850229030070
H         0.24201256773141    1.38566638572160   -3.51490788338053
H         1.39544460771232   -1.32228427494487   -1.40177339706071
H         0.24902559217017   -0.92825756869445   -2.69345683662191
H        -0.57856723405070   -0.58647261648122   -0.46589994874340
H        -0.51088278327783    0.93661020045645   -1.22836585807665
H         2.19613449316756    1.65393620292855   -0.54761209046876
