35
 energy: -49.719014154525 gnorm: 0.102220612572 xtb: 6.4.1 (79825abcba525fcdf90b791dcacef51065a7a4e7)
C         3.58555652349592   -1.40009784602690   -2.67676297816024
C         3.12445290010634   -0.02281575074465   -3.13059323741368
N         4.13240905913370    1.07052162422070   -3.01009527415731
C         3.80534625558275    1.77272070059043   -1.96378040763973
C         4.24407368810325    3.16939949587870   -1.65724895262118
C         3.75847265785150    3.82223277965503   -2.95698837371381
N         4.58716231550281    4.01851097229667   -3.93391884611010
N         2.41165593108434    3.99357571261313   -3.23036754284114
C         1.34945220646713    3.13553330692101   -2.67055198267918
C        -0.02133132203862    3.78073436660533   -3.00115740573586
O        -0.82789901754255    4.11526947738236   -1.87156421878415
C         1.29175179932265    1.68783282900831   -3.20637426436018
C         1.94027346884851    0.59993885499373   -2.30312567707586
C         0.83063096715739   -0.34204507525369   -1.74129268603622
N        -0.04619399043622    0.39191907766324   -0.81556239419477
N         2.76049498647840    1.22100568067796   -1.24431994324901
H         4.13475616358912   -1.33912898119884   -1.72969369454673
H         4.24797349760569   -1.80031488836457   -3.45147076143914
H         2.69856512982898   -2.02450212412932   -2.55141055956621
H         2.93816461457187   -0.09262318710100   -4.21093485102143
H         5.29263456557976    3.42108101263024   -1.47880110547158
H         3.63523723961897    3.47611462422556   -0.80447816409513
H         5.58327709153871    3.80508209974117   -3.79826843390241
H         2.25739002430486    4.18154653478278   -4.22373283583611
H         1.38525123818495    3.19257150623006   -1.57418299432565
H        -0.68229500910348    3.21541308160259   -3.66611337247722
H         0.22472124014076    4.76352776672400   -3.42245849049639
H        -0.79039884887127    3.32237779317790   -1.30342358834776
H         1.79008537743684    1.62047783001102   -4.18269242723933
H         0.24197437819186    1.51420377618780   -3.47885394458391
H         1.24021681017371   -1.21063309455768   -1.22628042042724
H         0.18810076598741   -0.65618969553425   -2.57324749010579
H        -0.05737779297443   -0.01199408915264    0.11777870629623
H        -0.98041225232112    0.43460767169418   -1.22593905737967
H         2.31689534159267    1.84093044375478   -0.56965993781813
