35
 energy: -49.729590227071 gnorm: 0.115150792359 xtb: 6.4.1 (79825abcba525fcdf90b791dcacef51065a7a4e7)
C         3.56863687883287   -1.48254148587779   -2.61545550224820
C         3.08826924551169   -0.12773221955594   -3.11467812577304
N         4.06307029097990    0.98979963982374   -2.95107046937717
C         3.69990679665954    1.65098532523292   -1.89004540860280
C         4.22513377258760    3.03202866049278   -1.65764307519205
C         3.63695796392446    3.97728084256844   -2.71209539787606
N         4.29217154888838    4.93046728575024   -3.29671113416489
N         2.43764621567543    3.61914263054553   -3.30488388042971
C         1.28812625375736    2.98315423528416   -2.63255242579672
C        -0.03751060840474    3.69408405456707   -3.00924531270558
O         0.11820726188338    5.10823520048839   -3.12913874148729
C         1.05324664535316    1.51012798208462   -3.03417009970048
C         1.88229002549431    0.43450121324646   -2.27544365421923
C         0.87909041943844   -0.61394305779041   -1.70216211227937
N        -0.30683427685677    0.03226791035926   -1.11864178476501
N         2.68043512648382    1.03375816600134   -1.18759603194106
H         4.55919672721391   -1.70937229936619   -3.02730092125789
H         2.91092173282329   -2.28081312644683   -2.97505980315816
H         3.60280386853099   -1.55203725308202   -1.52625826641807
H         2.99373823190506   -0.16632850662157   -4.20842792618909
H         5.31616785336876    3.04215395217318   -1.72252173938550
H         3.90815560451331    3.37003600110409   -0.66908357987004
H         5.28687662836750    5.06842991276268   -3.07824906878720
H         2.23391244181874    4.18256324865360   -4.13371157335817
H         1.49866529158482    3.08076461176631   -1.55891123124404
H        -0.81460229612165    3.35811165567392   -2.31507051732800
H        -0.37657939164656    3.39392163690023   -4.00867225605547
H         0.32705353956438    5.51777349703330   -2.26801803231702
H         1.21114051760134    1.29687353993362   -4.09984466364417
H         0.02423548245540    1.16835277332737   -2.85881159852686
H         1.46041566457401   -1.29956870736204   -1.08618988065165
H         0.50202698317977   -1.09793635756869   -2.61169736066233
H         0.00067175745006    0.58026824985682   -0.31893420945016
H        -0.83851557591118   -0.80360346444706   -0.87038963531119
H         2.22588353462965    1.67471893977940   -0.54044410220586
