35
 energy: -49.717439315655 gnorm: 0.134608229784 xtb: 6.4.1 (79825abcba525fcdf90b791dcacef51065a7a4e7)
C         3.71477566416943   -1.33755645590708   -2.52769093450934
C         3.08647966963073   -0.11115063032813   -3.17318092537369
N         4.06740238668757    1.00766465787734   -3.06397939434629
C         3.69666810075601    1.55688540069890   -1.94338086044072
C         4.19788512100274    2.92366053548032   -1.60007030604367
C         3.65945688036627    3.83275686670746   -2.71135831954918
N         4.28258073046997    4.75369657108537   -3.37711467248590
N         2.42333876532491    3.61923344900174   -3.29823955251925
C         1.24952387897577    3.00018146013910   -2.65260793347927
C        -0.06508492699614    3.73084568354521   -3.03018609478904
O        -0.09407790159457    5.14833714567397   -2.86189082676027
C         1.08927956236894    1.52115345230421   -3.06862403413717
C         1.85995130740876    0.39202376043516   -2.32627449557931
C         0.85043358463648   -0.62687180259066   -1.71225304937203
N        -0.16863033685850    0.12811543105661   -0.96659563961128
N         2.69678991958787    0.91985043217388   -1.23052950917572
H         4.66613845184090   -1.63807127093765   -2.98252867518038
H         3.17650625154835   -2.28658705488804   -2.62122720851231
H         4.07128250094387   -1.17478285466249   -1.50849748332966
H         2.81891287146613   -0.19454424940579   -4.23533341940902
H         5.25592897908550    3.15095738615113   -1.44662177449012
H         3.65233885786509    3.33474202308130   -0.74838650947814
H         5.24974074448386    4.95552356781981   -3.09415720630142
H         2.24089795369123    4.39353252537135   -3.94095401332556
H         1.35620438134661    3.13391014518632   -1.56757532213375
H        -0.79185943626793    3.37821839999138   -2.29121356372220
H        -0.45763215104527    3.53160968561131   -4.03523883144474
H         0.59352848991846    5.62517584594359   -3.36457319160015
H         1.30106770390300    1.39266035632996   -4.13853314104939
H         0.00955726541622    1.33961036230823   -2.98106418222080
H         1.51693927574680   -1.29627991518794   -1.16901617373478
H         0.32425562333874   -1.10964582307743   -2.54516763231698
H         0.13139853219682    0.04819907748122    0.00190453783431
H        -1.06429205398979   -0.35455862470221   -1.05497510633158
H         2.19185068516727    1.58212039938109   -0.64513361907350
