35
 energy: -49.721853146952 gnorm: 0.107187140708 xtb: 6.4.1 (79825abcba525fcdf90b791dcacef51065a7a4e7)
C         3.45905362239316   -1.49569759376582   -2.67208696493119
C         2.91885229658154   -0.11774107624872   -3.02550282756034
N         4.04024458346126    0.86602272963663   -3.00162610277121
C         3.78451302149799    1.76239705728214   -2.09281212875031
C         4.40089479612766    3.12458790025029   -2.05201334502454
C         3.84055729758317    3.74128680390841   -3.33926876925759
N         4.40873495716472    4.57938013783060   -4.14823013763768
N         2.51998589944387    3.38613151411067   -3.55827954492910
C         1.35404898218576    3.06480011275029   -2.71255844490241
C         0.18069593468933    4.01753478289465   -3.05921546674729
O        -1.01847119874039    3.55091999473784   -2.44057600828954
C         0.94431422880420    1.58540806106444   -2.88515076302234
C         1.86449472050262    0.60219751218621   -2.10635903771634
C         1.01178537164579   -0.30093372597560   -1.16214651939713
N         0.46913268282268    0.62236826628027   -0.15341292204253
N         2.74684470129610    1.41541467225243   -1.24630479586377
H         3.32654789049366   -1.67021563677180   -1.59772047290861
H         4.54463454640257   -1.53491899896216   -2.81035413220196
H         2.94431567196775   -2.30502979821985   -3.19398147555972
H         2.52322521040670   -0.18582969019672   -4.04802791563977
H         5.49096014931590    3.05443706644838   -2.01323822586868
H         3.95161427721261    3.58268131214493   -1.16868359913934
H         5.37031620435104    4.66314772889475   -3.79532495878811
H         2.30309127037813    3.81417839169682   -4.46140643688783
H         1.54774774365656    3.29989084839848   -1.65720399919430
H         0.00427680377282    4.07876690640764   -4.13799000514726
H         0.46378219882920    5.01046779344964   -2.68791298764512
H        -1.73809009295080    3.81315980606059   -3.04575878171647
H         0.96130692101899    1.28258114763238   -3.94064936804874
H        -0.07048575558984    1.46512263953381   -2.48248803170476
H         1.75992022227159   -0.96700782109034   -0.73309767562335
H         0.23607365100147   -0.80512639297441   -1.75184286821567
H        -0.32561158610325    1.13948604796605   -0.52133585660226
H         0.14516750312234    0.08727683754277    0.65387811068670
H         2.24851528806558    2.13762861893282   -0.73023474980489
