35
 energy: -49.717102265713 gnorm: 0.114859079881 xtb: 6.4.1 (79825abcba525fcdf90b791dcacef51065a7a4e7)
C         3.62143934555357   -1.36351595820537   -2.85070394505125
C         3.08491371464010    0.03273599968351   -3.13017695080400
N         4.15532981129104    1.02671238463427   -2.82669328495525
C         3.67917167590718    1.70410629132874   -1.82208422739915
C         4.14049204461002    3.09375370025282   -1.51676708496922
C         3.66679724645275    3.85382270413363   -2.76144798594817
N         4.47938463419400    4.59072978035679   -3.45160340285466
N         2.40394704230458    3.55296623442465   -3.24384260362471
C         1.18629693923285    3.03125032975034   -2.59342144721483
C        -0.08288391907183    3.81405146325134   -3.01890251476810
O         0.06418543907946    5.23414948255357   -3.03065673113267
C         0.95594564050576    1.52711140684581   -2.85945883363952
C         1.87492265677452    0.44978433423026   -2.21540968920060
C         1.03753731902647   -0.74942643073833   -1.67229285519064
N        -0.27916576461054   -0.24676842449698   -1.25023847949305
N         2.58354577606013    1.18956004309524   -1.15232826223362
H         4.54283137691862   -1.40673018805228   -3.44353354916114
H         2.99309976286441   -2.23541781163787   -3.06074823365545
H         3.95779243053054   -1.37379280834170   -1.81190239683982
H         2.78997874385653    0.29080852401934   -4.15639640013688
H         5.22607409524418    3.17809664905768   -1.61197755016496
H         3.76786219563773    3.41624810239190   -0.54254003123844
H         5.36844236096420    4.61499589961348   -2.93664215866736
H         2.34892624706028    3.67061459528390   -4.25825729230833
H         1.30631438475816    3.26171865236087   -1.52616325775541
H        -0.68552664709501    3.65412389092005   -2.11897334395031
H        -0.62508387421024    3.28944242236066   -3.81559811498213
H         0.62568286449905    5.53864972512865   -3.76880813884248
H         1.00823168773491    1.38820058506421   -3.94759492796096
H        -0.03321011096762    1.27171245064444   -2.45601472870104
H         1.61633811428288   -1.26119508629041   -0.90383606229066
H         0.67963569386465   -1.39375055623115   -2.48496348626192
H        -0.20509185895586    0.38970710388020   -0.46042299723242
H        -0.86297458664436   -1.01949194309655   -0.92610778236758
H         2.16955998654558    1.76229328412753   -0.41963058688805
