35
 energy: -49.720057049320 gnorm: 0.123029511190 xtb: 6.4.1 (79825abcba525fcdf90b791dcacef51065a7a4e7)
C         3.76603193693555   -1.32551107554329   -2.67035523341271
C         3.06489413604666   -0.05279373613680   -3.12210826822537
N         4.07790541608261    1.03637535466061   -3.00634626559399
C         3.67467881710533    1.66163843399427   -1.93803787901882
C         4.10867061379708    3.06662867730803   -1.66452651835680
C         3.54879704160714    3.90652478649052   -2.81883943877321
N         4.18158059361455    4.86818486152485   -3.41418782641693
N         2.39464219887776    3.47792857725042   -3.45306476083313
C         1.19591826312991    2.94830633554903   -2.77448668546100
C         0.00571583913000    3.86127419442810   -3.16760207892841
O         0.07952573855311    5.06086079881775   -2.39689458667017
C         1.02846086842432    1.45485617867633   -3.13202855560028
C         1.79644973219537    0.38666200429898   -2.30190447738027
C         0.84645405586091   -0.67358431629824   -1.66340429356891
N         0.03129756082533   -0.07367978062039   -0.59563259475463
N         2.62118786764823    1.05623113198215   -1.27670150824319
H         4.55903637249518   -1.41552263739755   -3.42223259761693
H         3.13494098283912   -2.21002309332224   -2.53432297053002
H         4.24176392468916   -1.01113894521836   -1.73912115423002
H         2.73935184333105   -0.12513328781869   -4.16877135885966
H         5.18734745866374    3.16618604068718   -1.81016904086597
H         3.90034603518390    3.48252087086112   -0.67679753537612
H         5.12677803867231    5.05417056051194   -3.05612543504805
H         2.41278420495570    3.74513594586353   -4.44006865443111
H         1.27156165929219    2.98471300269250   -1.67926409536970
H        -0.97057840615156    3.43622317191201   -2.91302641651156
H         0.04912672858101    4.07156624572193   -4.24361884328990
H         0.93938192787459    5.43154394191372   -2.67277246473635
H         0.96661247534629    1.30612629878835   -4.21836386030060
H        -0.02145250064676    1.27232201256600   -2.86596825818223
H         1.46403564204043   -1.48221897962346   -1.27334491292219
H         0.28419436264816   -1.18336542463356   -2.45565927577594
H        -0.05206009755202   -0.63987238313477    0.24512538014889
H        -0.90775946065373    0.03785838811532   -0.98128299585447
H         2.11570045680393    1.40585386936102   -0.46522144512212
