35
 energy: -49.713533982319 gnorm: 0.114973056652 xtb: 6.4.1 (79825abcba525fcdf90b791dcacef51065a7a4e7)
C         3.26156323161546   -1.54781817438004   -2.28169241354773
C         2.94121382295940   -0.19864748865866   -2.90826973720661
N         4.09998380189801    0.69645625746090   -3.19449238764350
C         3.92486358029679    1.65920977723695   -2.33584987253244
C         4.63188782701464    2.97485792162396   -2.25621576697467
C         3.77606506501464    3.88981447360500   -3.14037869799771
N         4.30130386269888    4.94828526630387   -3.67274004195747
N         2.52284080983491    3.59169747937634   -3.64887163058358
C         1.36610625608220    3.09832912240508   -2.87656352593566
C         0.00299290187591    3.79716588361599   -3.11777088644363
O        -0.99456866161739    3.16907745205519   -2.31227612713297
C         1.13277377214805    1.58810665713669   -3.10251838903834
C         1.91813889692804    0.68750798288844   -2.10648860533859
C         0.92834858430979   -0.17270787815251   -1.26112457819215
N         0.26095757453974    0.63985480014205   -0.23212841932264
N         2.92633530629945    1.49576696331568   -1.39247576333577
H         3.80714609908580   -1.44250810237937   -1.33642694902372
H         3.78305633545564   -2.20666172924957   -2.98391188562356
H         2.34583075961881   -2.12663547381580   -2.14475361051843
H         2.42938937597366   -0.33660135055805   -3.87041260075380
H         5.55565918263286    2.95639566934754   -2.84014450114623
H         4.81781151139223    3.45064585949819   -1.29131566479359
H         5.27050063129215    5.15053692503564   -3.39715075610445
H         2.20863947697850    4.37871474376397   -4.22139844577967
H         1.55240055332132    3.28559874109456   -1.81036259991693
H        -0.13569974614742    3.77160236231682   -4.20346810432223
H         0.22203454142826    4.78009872448256   -2.68212983441758
H        -1.63431578992880    3.76765291663680   -1.88181325535468
H         1.46657907830155    1.37880747734087   -4.12762232490084
H         0.07499469318422    1.30791346586063   -3.00754438753180
H         1.46598222800844   -0.92348838401278   -0.68257289440775
H         0.25354939738938   -0.69280122862267   -1.95237681856246
H        -0.21199005918412    1.46348415348007   -0.59593023107918
H        -0.39855253618765    0.04813732374328    0.27572187829691
H         2.60156833358699    2.34129651124756   -0.92786875314829
