35
 energy: -49.716688375435 gnorm: 0.121964237502 xtb: 6.4.1 (79825abcba525fcdf90b791dcacef51065a7a4e7)
C         3.74316762792155   -1.35592408618195   -2.39435476549626
C         3.10192179733595   -0.11610541388150   -3.00027380816204
N         4.00608069170242    1.06814894378129   -2.92333021106183
C         3.70628574697966    1.67233338646408   -1.80981659125976
C         4.09174258635536    3.10472984049348   -1.61793546151902
C         3.72231363536401    3.74606332012103   -2.96089331816391
N         4.41568804393467    4.56555107441972   -3.68705896702904
N         2.38580912907780    3.64787601577143   -3.31035690802033
C         1.28503752241842    2.93770910119445   -2.63074540533047
C        -0.06004927676846    3.66765664723538   -2.88084522273728
O         0.13819037155418    5.05105264499402   -2.58867657520161
C         1.14435783482252    1.49643067419367   -3.16851605109226
C         1.82260180793033    0.42792899676774   -2.26394932023795
C         0.78345972011208   -0.63506909167758   -1.79011882696373
N        -0.45157432538556    0.06326921050014   -1.40086762672613
N         2.59321981024776    1.11352509298269   -1.20769990410923
H         4.59879783723843   -1.66150305052820   -3.00819197710428
H         3.13766115223252   -2.26225372053603   -2.28913795704490
H         4.21394361669932   -1.06363530620709   -1.45345896644427
H         2.84262132834594   -0.14888706006672   -4.06723353318570
H         5.13479599469684    3.15439234011537   -1.29507271682211
H         3.42554848579319    3.50777107043198   -0.85261383389910
H         5.37531525369684    4.75151655613814   -3.36967904162458
H         2.23941527601646    4.10915116323744   -4.21130067278835
H         1.42256744322374    3.04300582543404   -1.54605282214239
H        -0.82850719697385    3.38236142020326   -2.15509963949310
H        -0.37457034475813    3.62589176566354   -3.93120302878591
H         1.07896324623372    5.21105078820105   -2.38321549956204
H         1.54233239697393    1.59803416571305   -4.18702633035469
H         0.12045495582298    1.15956224230939   -3.37962601895925
H         1.26008307887587   -1.26447221871274   -1.03903612002667
H         0.54912718290680   -1.23233823902670   -2.68008429723650
H        -0.26486732603945    0.92423907748390   -0.89266695560774
H        -0.95296895894859   -0.57170507653841   -0.77764522442457
H         2.02209225999556    1.64270090822537   -0.55192573346752
