35
 energy: -49.723152875319 gnorm: 0.105763248477 xtb: 6.4.1 (79825abcba525fcdf90b791dcacef51065a7a4e7)
C         3.30420508858576   -1.47778712966961   -3.01972901554573
C         2.87152194230584   -0.02668749125344   -3.16999405871232
N         4.04060105877269    0.88848938680457   -3.02306785376292
C         3.85832169268535    1.68736037762207   -2.01143165270963
C         4.31496615391583    3.07978087928271   -1.71177193275430
C         3.67163534171568    3.84119325492381   -2.87697529491974
N         4.25780082915434    4.79004843684917   -3.53707277974566
N         2.41844306347094    3.49956369633629   -3.35740033094909
C         1.19884497784254    2.99297100402904   -2.69872641624724
C         0.02016164162139    3.69621385228063   -3.42038210465734
O        -0.16701079503975    5.05428803261241   -3.02157518419887
C         0.86701184477875    1.48453071950531   -2.67104569962812
C         1.90518045965475    0.50703722205738   -2.04922249293359
C         1.02514175628123   -0.58224810193805   -1.36126469000269
N         0.25895707770166   -0.00511789436676   -0.24574519585100
N         2.81536806487889    1.29283644076612   -1.19269750256422
H         3.72366212770709   -1.68388271791731   -2.02783281007581
H         4.06471183494937   -1.68462441568612   -3.77998549072265
H         2.56403262584404   -2.23872256323042   -3.27559940575276
H         2.45548179997214    0.20917936403238   -4.15892876386704
H         5.40020932421614    3.20791014231779   -1.68947176853671
H         3.88037608933453    3.50369163087417   -0.80435518029304
H         5.25463192356332    4.73235155695297   -3.29376964791171
H         2.26274258373311    4.07725143254728   -4.18682172237545
H         1.25652453083573    3.23047314576383   -1.62782693591092
H        -1.01067789865047    3.39301187809113   -3.21046307714311
H         0.28184884353931    3.63397949319552   -4.48413302857573
H         0.66044265606042    5.54346964188029   -3.19154400660873
H         0.61447041692788    1.19954503172287   -3.70113122887659
H        -0.07345949105266    1.44156173243717   -2.10527877448890
H         1.61168624090569   -1.46426083339885   -1.10540834380640
H         0.27289662774803   -0.93913691402178   -2.07571437638818
H        -0.56993746410322   -0.54011117517921    0.00146436366976
H         0.86895711570005    0.11012309229691    0.56518917560502
H         2.31045426502847    1.97507856105695   -0.63068216722259
