35
 energy: -49.722228006893 gnorm: 0.126062843510 xtb: 6.4.1 (79825abcba525fcdf90b791dcacef51065a7a4e7)
C         3.53958442959637   -1.38086026714344   -2.63767344859977
C         2.93115141225996   -0.09029175391384   -3.16656530630375
N         3.92583408365282    1.01771353076919   -3.07268954724377
C         3.60967880583277    1.60426527454027   -1.95428385919503
C         4.24797777391670    2.93920817499943   -1.73597955933374
C         3.64334506676307    3.96820026365730   -2.69874470602208
N         4.14153657892714    5.08754608928379   -3.12125498238843
N         2.54278300926400    3.55494223452918   -3.43085863777898
C         1.35822083876137    3.03200689249323   -2.72286283109500
C         0.07133706070450    3.75672854114043   -3.19545197007831
O         0.10381585783960    5.16545600489668   -2.96549977795052
C         1.06307177321112    1.54507428104939   -3.01983073096678
C         1.80192774335025    0.44189170889991   -2.20925582576910
C         0.93251702527386   -0.70872165633531   -1.61384809921422
N        -0.20229029939707   -0.25633780751381   -0.79405353808295
N         2.60747006317301    1.08671068204594   -1.15338322378265
H         4.44935145207041   -1.58894403699790   -3.21326252593844
H         2.89728851133723   -2.22656109524979   -2.90485903505398
H         3.70692034157264   -1.48102655333837   -1.56328382490864
H         2.56155328659362   -0.23294288672226   -4.19114438089122
H         5.32600592102475    2.99427650075113   -1.90770584740637
H         3.94636867106435    3.29774996739468   -0.74984887841170
H         5.10789415379783    5.23748970690581   -2.80523676775304
H         2.37458761711179    4.29621111378553   -4.11506354672867
H         1.52999678204605    3.23995452550468   -1.65805736734651
H        -0.80616799508572    3.35287769143657   -2.68016859413950
H        -0.06416495135074    3.62239343160642   -4.27596694380888
H         0.88920610903043    5.62251460483131   -3.32204829832722
H         1.19747675485717    1.39170232625857   -4.09894264698742
H         0.01383151699262    1.27511577604789   -2.83915936574629
H         1.56163978829083   -1.35917759158710   -1.00676082277752
H         0.65737807848438   -1.43777228182211   -2.38615919196493
H         0.10983896637985    0.29342609377563    0.00264684801684
H        -0.66655595507676   -1.08235267871879   -0.41306546310605
H         2.08281590077502    1.63390389705700   -0.47399301642326
