35
 energy: -49.721513776095 gnorm: 0.105302716745 xtb: 6.4.1 (79825abcba525fcdf90b791dcacef51065a7a4e7)
C         3.44389679588703   -1.41866738714015   -2.61167679233805
C         2.93013591151268   -0.01514664658575   -2.89744541537445
N         4.02039951266299    1.00156868350381   -2.95658258618287
C         3.83017710205476    1.84668162521245   -1.98476575647146
C         4.44102735187372    3.21194811746696   -1.97674784676843
C         3.87036679287035    3.78080550271486   -3.28138188179117
N         4.49112514501598    4.03779402403059   -4.38965114525953
N         2.49470722131450    3.87413664659092   -3.41122739141563
C         1.40073776859317    3.19704030532190   -2.68826244375199
C         0.13224151504250    3.95432307778654   -3.15950747690474
O        -1.07530335497988    3.57129621345666   -2.50104581497647
C         1.09604881959423    1.69394451968689   -2.87303038391175
C         1.87234645269711    0.69135930824263   -1.97184421211579
C         0.97317438034819   -0.40448395578773   -1.31999022196990
N         0.09521106900374    0.16012066339997   -0.28321444846268
N         2.77070152720887    1.52980890776600   -1.15360383542831
H         4.23043450372628   -1.42105183736430   -1.84771971098312
H         3.90989979168605   -1.74521077695122   -3.54727964728091
H         2.59966122855681   -2.06897673899867   -2.37353457221793
H         2.54296218636381   -0.10920216414703   -3.92114677672757
H         5.52887134838823    3.13543797285944   -2.05029215011598
H         4.27491550246835    3.74545877721370   -1.03879944169105
H         5.51736033883470    4.03995003287197   -4.33456724693240
H         2.23909369206337    4.02454220687165   -4.38997428640785
H         1.44745797699726    3.45896625567193   -1.62253645152213
H        -0.05427002137585    3.67798842438074   -4.20233066488902
H         0.19774583119345    5.04746072053242   -3.22790776425238
H        -1.04102228530860    3.87400654202828   -1.57365241137108
H         1.43204755483531    1.44852562269310   -3.88936921454906
H         0.00637666404538    1.56935146322994   -2.81373441064058
H         1.59458528342334   -1.09852695694323   -0.75466186845023
H         0.45072442263881   -0.86311470531159   -2.16874494220739
H        -0.36439430347702    0.95644311001066   -0.71799025200510
H        -0.63845580165015   -0.41891115621049    0.12842878649812
H         2.44250508434353    1.89373240431393   -0.26135934533957
