35
 energy: -49.722251005905 gnorm: 0.113065927243 xtb: 6.4.1 (79825abcba525fcdf90b791dcacef51065a7a4e7)
C         3.57752178573469   -1.40501132206956   -2.68825576032726
C         2.96541493464094   -0.07935460827695   -3.11655930254717
N         4.09027710516929    0.89058740034013   -2.97591933365406
C         3.74613509266662    1.62629539392059   -1.95850671073472
C         4.30107607478443    2.99024247560772   -1.69612567777313
C         3.64014795810978    3.96211890985940   -2.68098730404833
N         4.20554567044225    5.05608300093532   -3.08498336096882
N         2.48466629488287    3.58664598581678   -3.34573693407232
C         1.27498354347381    3.02371196236196   -2.71511825975967
C         0.01577353429405    3.69946646276146   -3.31709655223738
O         0.02827081207519    5.10745327429287   -3.08074316776913
C         0.91116417008699    1.53767446844306   -2.92865882386601
C         1.81900349323313    0.49995815021162   -2.20829483363799
C         0.99463081105765   -0.65726024848207   -1.56366176428997
N        -0.18851859914611   -0.28916236616298   -0.77046356754529
N         2.65202316715954    1.21295650821916   -1.21972592051615
H         4.49685590205315   -1.56150774493280   -3.26498042148944
H         2.89503651429385   -2.21888412101506   -2.95465208580613
H         3.84387083847495   -1.54762151398865   -1.63893780172116
H         2.66306920597648   -0.21953481584709   -4.16329278657887
H         5.37493430364479    3.01031888764022   -1.89883874807519
H         4.09249330493613    3.34682516174460   -0.68552386762945
H         5.01456792372559    5.22180224288479   -2.47325000465793
H         2.31460091416057    4.20473636441970   -4.14257296066430
H         1.26015179400516    3.30880596763035   -1.65442918360345
H        -0.90640814006833    3.30483889262879   -2.87837381510892
H         0.24802044143985    3.55258481787688   -4.37936134896552
H         0.77050597264932    5.56320774906460   -3.52147220727907
H         0.93303027606129    1.31116258495389   -4.00303512885215
H        -0.11792131788169    1.45726317501853   -2.55323645264805
H         1.70963165648081   -1.13209119383763   -0.89228055778249
H         0.65654041399573   -1.41044444905736   -2.28621912516667
H        -0.17998576676117   -0.73961938502274    0.14135450613248
H        -1.12199708065229   -0.46189039041226   -1.14699780540629
H         2.28849818016018    1.93680632814289   -0.60316732255829
