35
 energy: -49.720187156416 gnorm: 0.109773790584 xtb: 6.4.1 (79825abcba525fcdf90b791dcacef51065a7a4e7)
C         3.61053068878465   -1.51292501648099   -2.67580951320174
C         3.02988620142518   -0.18546552982823   -3.14076942243471
N         4.05890477135466    0.89065987288198   -3.04612854909113
C         3.70701088203567    1.57513971619817   -1.99613500717418
C         4.20604125465821    2.93621263816580   -1.62789038278291
C         3.55450553111382    3.96475624130081   -2.56004993097733
N         4.07482984079403    5.09600929224721   -2.91945770303013
N         2.46466624727167    3.58672564634382   -3.32643954049885
C         1.22090275242904    2.91064140811344   -2.90946301131584
C        -0.04842694278531    3.64499064914397   -3.41361094473774
O        -0.06296216072556    4.93232703789684   -2.79635920487689
C         1.07634456720827    1.42370776557427   -3.30240423334281
C         1.82859127408236    0.45120537901052   -2.34934826214881
C         0.86977666790238   -0.47614196443375   -1.54002879057695
N         0.24146169753159    0.34891487431931   -0.49647549373605
N         2.59013900399342    1.15324464330504   -1.29732978915103
H         4.56336292599317   -1.60161782120193   -3.21108700769093
H         3.08170164681994   -2.42312235042085   -2.97750924700701
H         3.92106455133119   -1.55955821769526   -1.62998843734795
H         2.68230873727260   -0.32834040097195   -4.17299570310599
H         5.27496345080546    2.96634279003159   -1.85408642186417
H         4.00848352736464    3.15230973322348   -0.57610762016216
H         5.07481098348225    5.19491251104368   -2.70392712406585
H         2.30942738837949    4.23127075157370   -4.10513594935688
H         1.13584283509454    2.83666587471480   -1.81682751890372
H        -0.88680040267964    3.03754686373921   -3.05756377992003
H        -0.08166197263167    3.70446424221699   -4.50872630404944
H         0.78184364116569    5.38887374278907   -2.97167470368985
H         1.36729105347635    1.35902666188896   -4.35939841571242
H         0.06782658226877    1.00128760064739   -3.19810872933861
H         1.43968474486017   -1.17510610282600   -0.92839386875897
H         0.24008074226574   -1.04902157692338   -2.23210732093437
H        -0.14490602578009   -0.16359747914650    0.29247799451104
H        -0.50624313616172    0.91555945242011   -0.90001791805730
H         2.19257030767590    1.37216253987160   -0.38613960521960
