35
 energy: -49.723794895752 gnorm: 0.108011464871 xtb: 6.4.1 (79825abcba525fcdf90b791dcacef51065a7a4e7)
C         3.58162526805105   -1.34769162780741   -2.87152366568659
C         3.05627124293407    0.05991168023922   -3.11264712220122
N         4.04691575361077    1.16341229271741   -2.94896494087207
C         3.69167719687390    1.77427620025917   -1.85558518293287
C         4.04663059604621    3.20791072787802   -1.61924834188887
C         3.57748255164890    3.82237902584161   -2.94350323869015
N         4.34042473636761    4.66178843409959   -3.57036516291981
N         2.36877377291603    3.39536444935535   -3.46761341588369
C         1.17363092196848    2.89425569153311   -2.76161727723946
C         0.00263714539602    3.78232913198066   -3.25632018488518
O         0.12891906354651    5.10895371288685   -2.74390818697198
C         0.86323579229054    1.38523579990640   -2.87468967578951
C         1.88799950033475    0.47179362434896   -2.14295581587385
C         1.19293600410666   -0.67676987173804   -1.34798084261700
N        -0.02193017047635   -0.15576473206009   -0.70210484624328
N         2.60875169172131    1.28750693444195   -1.14561684103975
H         4.39490269554520   -1.55513872206233   -3.57708954604594
H         2.85659087310868   -2.08548120318375   -3.23087551364798
H         3.82208104739003   -1.52407921340106   -1.82108751688618
H         2.72708178420246    0.14410329603736   -4.15728126620086
H         5.13339279761472    3.22602078900629   -1.50397869526165
H         3.57192998473266    3.58364851649127   -0.71070310414200
H         5.28011458890208    4.85906752273215   -3.20394804992526
H         2.36762275162326    3.39543016192467   -4.49030802357641
H         1.29311054470639    3.15555920961222   -1.70142626655635
H        -0.97185714679405    3.45583326179530   -2.87897563066421
H        -0.15538159630768    3.82718509802370   -4.34118761567222
H         0.66013748421763    5.61883252949717   -3.38476530263606
H         0.85668316416058    1.11707454211831   -3.93963888277311
H        -0.13587735323412    1.27892695902834   -2.43095977050689
H         1.88251704197135   -0.98406235178970   -0.56217381040942
H         1.06701962956388   -1.46238365222483   -2.10338587859611
H         0.00666401824343   -0.39574375641610    0.28581669921355
H        -0.89246460968189   -0.56526597418101   -1.04484907783445
H         2.23782272845936    1.67037864329818   -0.27839458527112
