35
 energy: -49.721476250327 gnorm: 0.103904400307 xtb: 6.4.1 (79825abcba525fcdf90b791dcacef51065a7a4e7)
C         3.37146556751799   -1.35784015446793   -2.80615683632330
C         2.88626449991993    0.04421944403190   -3.14422962823935
N         4.04058386863606    0.96815603986987   -2.94480561363551
C         3.74600689579003    1.76678475336822   -1.95979547585682
C         4.37605758316460    3.11160065137368   -1.78185949029724
C         3.87626002949791    3.83244825704052   -3.03959686045281
N         4.60683365083022    4.58467438408830   -3.80121541001065
N         2.62703566791745    3.44873689553849   -3.49808775280199
C         1.40801837350975    3.13100349338588   -2.72935550686976
C         0.29884566026730    4.14067730335135   -3.12296255794458
O        -0.61590039474458    4.06289866193444   -2.02951109659302
C         0.86698265314717    1.70580507970992   -2.97907804515169
C         1.76416418959861    0.67303692021937   -2.23853308305313
C         0.96521293921405   -0.46595994703603   -1.53237479257649
N        -0.16955468775705   -0.13913033615609   -0.65488588861859
N         2.66069199725221    1.29446994906562   -1.24373874607223
H         4.02497902418977   -1.37722220062851   -1.92591700031102
H         3.89969302385076   -1.72628914123371   -3.69179963899188
H         2.61767936277034   -2.13104641724091   -2.64396533123886
H         2.66015001340348    0.00362855554886   -4.21844516314748
H         5.46298088208619    3.01243016618079   -1.84042641669450
H         4.20109671427192    3.59006885580710   -0.81623490629184
H         5.60289065673458    4.67713957180997   -3.56559244136858
H         2.51618636265000    3.73934413635352   -4.47233897623030
H         1.62407781102629    3.27032091074310   -1.66142814356240
H        -0.20338640415359    3.89482269976955   -4.06420963234001
H         0.71480217524324    5.14529560981878   -3.27007327576717
H        -1.47113650512213    4.42012632242067   -2.33582279304079
H         0.67991735372351    1.55062252069767   -4.05005662637651
H        -0.08043394968422    1.55843144938838   -2.44325376743284
H         1.67524061187100   -0.97892954941472   -0.88417247824434
H         0.49478505171301   -1.13148211424291   -2.26685320402908
H         0.23806846421970    0.15790523637240    0.22829572804885
H        -0.78337620351304   -0.94607358939374   -0.53216338938174
H         2.27163849740145    1.88298275341391   -0.50988350772641
