35
 energy: -49.730610740793 gnorm: 0.104545058873 xtb: 6.4.1 (79825abcba525fcdf90b791dcacef51065a7a4e7)
C         3.73881791344914   -1.46359186651582   -2.56957619638356
C         3.08336440739598   -0.17407941482389   -3.04182906496445
N         4.08429320387221    0.92656170187573   -2.92952288352594
C         3.77420317455991    1.62097203034056   -1.87289291848915
C         4.23004677145778    3.03001651850589   -1.66323805115954
C         3.72563939212154    3.89115041440314   -2.82743037794921
N         4.26236136999208    4.92021561591515   -3.40414445027137
N         2.42492681258579    3.68390343929897   -3.25545526381462
C         1.27419530959330    2.96744457274374   -2.67200804738251
C        -0.04553856217785    3.73452834703957   -2.94498572899371
O         0.02601011897765    5.14133431896176   -2.71212591100616
C         1.06790416693503    1.49645765462495   -3.09616955256481
C         1.85343760794284    0.43541530872047   -2.27332203053812
C         0.83368453028958   -0.61684940999721   -1.73746834123192
N        -0.35667332931231   -0.02284763813877   -1.10920722674288
N         2.62007197158730    1.17709546108088   -1.25266575157412
H         4.64111632812668   -1.67647106812029   -3.15508255438661
H         3.13235611591896   -2.36640593034598   -2.69714159434151
H         4.00280453335755   -1.39329319177843   -1.51235492131725
H         2.77273959367629   -0.31889532673153   -4.08550286419506
H         5.31890543249350    3.12105551289311   -1.69091206650340
H         3.81448774711200    3.34855405199352   -0.70520958904381
H         5.23662665919783    5.18116148318528   -3.20688331814550
H         2.16727663245646    4.10508490255009   -4.15107133455822
H         1.42630670975074    3.08928620727357   -1.59100082032376
H        -0.72683397961770    3.37180458041013   -2.16852219353324
H        -0.44384330634080    3.48076209812631   -3.93537724105840
H         0.35437556928191    5.54126912527246   -3.53983089597109
H         1.44489404674778    1.46647690208673   -4.12721271384445
H         0.00914805739313    1.20768571971617   -3.05065980277059
H         1.42735460764952   -1.28171915516259   -1.11061315524693
H         0.56306491589250   -1.19285742509198   -2.63114641680917
H        -0.15497460788347    0.17686743086659   -0.13256601602839
H        -1.10359042086281   -0.71931654163347   -1.10280337633047
H         2.22373300447913    1.68231934619762   -0.46278112612984
