35
 energy: -49.721101333586 gnorm: 0.115231616343 xtb: 6.4.1 (79825abcba525fcdf90b791dcacef51065a7a4e7)
C         3.37336222352290   -1.44394497092664   -2.30314814736992
C         2.88347309393202   -0.15723941816011   -2.95113111119428
N         3.97538761581097    0.85471879764024   -3.04883095602815
C         3.76553059356067    1.71952225859003   -2.09861865137531
C         4.36662918922330    3.08553691729534   -1.99942508213255
C         3.85702864474615    3.87394486798967   -3.21187812353848
N         4.43315364301288    4.72624739244020   -4.00010728120398
N         2.59231794635890    3.58118871237129   -3.69438256874943
C         1.42457130891994    3.10458798748324   -2.92814075483771
C         0.14764751011817    3.93743842288417   -3.21179123263523
O        -0.86200405679781    3.66646735638747   -2.23935904974544
C         1.08488607435841    1.60194257435339   -3.04190474451064
C         1.81453642146534    0.61127634780818   -2.08998956599155
C         0.77258480255640   -0.36998796233555   -1.46889879150480
N         0.20200514282570    0.38893257181531   -0.34507475688269
N         2.72762765567561    1.40183773057917   -1.24097010719561
H         3.59871566796128   -1.18209884015035   -1.26250886478863
H         4.35011248706853   -1.63686902644019   -2.75908818471359
H         2.77576077393007   -2.34895923660261   -2.43030691881263
H         2.44097044620568   -0.24860250467827   -3.95240960659189
H         5.43260558644663    2.98533272274469   -2.21924452749008
H         4.15991072749673    3.61035493037434   -1.06464835571010
H         5.41982819416002    4.95380727392167   -3.82435918996840
H         2.29709522072978    4.04850685200230   -4.55482599813560
H         1.64406658097422    3.37287561279704   -1.88583395209925
H        -0.23208748594292    3.62943892509708   -4.19136524085869
H         0.34701782689741    5.01218907774742   -3.30708987504539
H        -0.52073948550106    3.87484869198533   -1.34886313650844
H         1.32333442274559    1.29070554882025   -4.06774299558846
H        -0.01174703953450    1.55624345656149   -3.00028411784155
H         1.19316130143667   -1.35385240388385   -1.26257494910459
H         0.05732304706937   -0.61523293743602   -2.26384296495346
H        -0.67293171890762   -0.04211229478956   -0.05683466359110
H         0.72890244107583    0.21178087531866    0.51165834110345
H         2.42877122608351    2.14974427496493   -0.61841559830560
