35
 energy: -49.728564335630 gnorm: 0.115629452425 xtb: 6.4.1 (79825abcba525fcdf90b791dcacef51065a7a4e7)
C         3.47688928926587   -1.43450880201048   -2.94596196230340
C         3.09313395048593    0.02396964920635   -3.14858699476256
N         4.21441883346082    0.95273952496331   -2.82302788147786
C         3.79399107066249    1.64901997699732   -1.80653269732807
C         4.36667202311003    3.01378551158855   -1.59064728260147
C         3.64511853153421    3.78260299066702   -2.70402162491471
N         4.22630313041967    4.68651549260482   -3.42846034813901
N         2.32793984086664    3.62913659242116   -3.10339387650981
C         1.10581339093994    3.01073919439174   -2.55394089667298
C        -0.02882900769034    3.80916690415598   -3.24656754184137
O        -0.17050777937413    5.11717808483611   -2.69205889382012
C         0.98559619918058    1.52553105268935   -2.96134262243668
C         1.90876873385625    0.50719839327788   -2.23284911896635
C         1.04787931107308   -0.69486906374864   -1.73465255478579
N        -0.06740496870847   -0.11370778452090   -0.97117725756705
N         2.64961339168803    1.20887297754241   -1.16591007218824
H         3.73495426886979   -1.57260988890828   -1.88926510837684
H         4.37863825167884   -1.65530875840007   -3.52668416072127
H         2.68954166228923   -2.16160175855356   -3.15516811479617
H         2.74897977893002    0.05355892006246   -4.19137019784695
H         5.45460778040683    3.10195905740778   -1.64799138389790
H         4.12010255801364    3.37904129760244   -0.59176505318015
H         5.20104477511241    4.91914080144113   -3.20050913820256
H         2.10432046292101    4.13119788640582   -3.96585224046355
H         1.05184259111688    3.14896203967204   -1.46557446771730
H        -0.97865270994369    3.38513977396261   -2.90500710949907
H         0.06364742816698    3.80320938566040   -4.33987991656331
H         0.49803734146085    5.67457613693947   -3.13389833813901
H         1.23382544293533    1.54975924319526   -4.03085908420645
H        -0.06669050385774    1.28052519020768   -2.76363145563344
H         1.74303370923826   -1.31261901761812   -1.16668360565493
H         0.56233020307853   -1.28788474281263   -2.51967177675855
H         0.25649010996112    0.35699333647222   -0.12979210636292
H        -0.66047448482878   -0.85772907855500   -0.60010320770688
H         2.17416153483848    1.90633265234506   -0.59692059608168
