35
 energy: -49.723191355924 gnorm: 0.116938728668 xtb: 6.4.1 (79825abcba525fcdf90b791dcacef51065a7a4e7)
C         3.65774957062459   -1.36403683937641   -3.01540476418230
C         3.05230463199570    0.02802768887891   -3.12065288178053
N         4.02158095539602    1.13471276435112   -2.87239188337136
C         3.61160972621011    1.70899361827637   -1.77833818336330
C         4.00154995997095    3.11770487961187   -1.46110935844228
C         3.56868224730229    3.87311550114666   -2.72337024405764
N         4.41144661167036    4.59055540165515   -3.39766471685282
N         2.38261278698283    3.55940680201682   -3.36589335205819
C         1.20489981626450    2.98679635739939   -2.68544025792906
C        -0.01237282268807    3.76918698236310   -3.24288448282431
O         0.14827356588433    5.15972405152840   -2.96173442197335
C         0.92913213841068    1.49311932718571   -2.96678102668877
C         1.81417265031981    0.43920393811321   -2.24157948625581
C         0.98575819265713   -0.73242241859904   -1.62894774174557
N         0.25848298341447   -0.21434501831867   -0.45968792011249
N         2.48111674744588    1.19882489251266   -1.16560621558978
H         4.52332839332754   -1.44920429742335   -3.68308543163734
H         3.00407779896201   -2.15180342720353   -3.40435088574602
H         3.85156830679953   -1.69939937701174   -1.99446700076784
H         2.69754550025872    0.21806161836106   -4.14278177409474
H         5.08426055626019    3.26417231609331   -1.43025158130020
H         3.57167897780909    3.59194014294030   -0.57664011168158
H         5.31917456070894    4.58109834444389   -2.91585759188156
H         2.33061999073115    3.81688879464243   -4.35427858249611
H         1.27129690405643    3.30334100040221   -1.63570181624103
H        -0.95894760282907    3.62866732212274   -2.71102171679036
H        -0.17742264098560    3.63137276184009   -4.31884225383049
H         1.03210716425050    5.36484445575895   -3.32177754721684
H         1.09713977519415    1.38394599758586   -4.04656101227081
H        -0.12356221617019    1.31265446237808   -2.71047673780053
H         1.61116244046679   -1.55996991327616   -1.29506451558851
H         0.39878699108239   -1.25504670472991   -2.39446021508059
H        -0.35717110990098   -0.98090567384714   -0.19939705258190
H        -0.28309974992829    0.64131492200674   -0.59208613669800
H         2.07133030286094    1.36800115372128   -0.24925043508957
