35
 energy: -49.723292457569 gnorm: 0.125434348731 xtb: 6.4.1 (79825abcba525fcdf90b791dcacef51065a7a4e7)
C         3.48583417316439   -1.38385978743832   -3.16660971605000
C         2.93906087340268    0.03020054147860   -3.29682790797919
N         3.99637347848380    1.05509473498268   -3.05690302957004
C         3.70316405128729    1.65603125738003   -1.93988380772076
C         4.36491112138143    2.96260014865132   -1.63636532417607
C         3.61777709576459    3.96246072502618   -2.52709072932920
N         4.04266168906940    5.11835061391227   -2.93086844134075
N         2.42347696959100    3.59170682458848   -3.12223657141261
C         1.22106093910298    2.99749398893717   -2.50659566104315
C        -0.00295839847238    3.76758247440172   -3.06639222934459
O         0.14366933229148    5.18684700827035   -3.01506544585193
C         0.90021445845727    1.51584422708552   -2.80331609137202
C         1.87303739579617    0.45159675109559   -2.21941156078331
C         1.09746232866821   -0.80293939376578   -1.71057079761886
N        -0.10034632846636   -0.30636784355071   -1.01546426479024
N         2.71586760699870    1.06353770252815   -1.17312172183498
H         3.92691942785547   -1.55808585512472   -2.17799110772031
H         4.20282668969677   -1.66924446927667   -3.94353917903906
H         2.61433287641805   -2.03792952668950   -3.23750352720229
H         2.56048384568627    0.30720697740572   -4.29013615957301
H         5.38450472877529    2.99631265784616   -2.02874203191555
H         4.15111321952587    3.30571121910800   -0.62219608162517
H         4.95224073656845    5.44383119935748   -2.58026053588502
H         2.31577864823572    3.94576488672644   -4.07562502350610
H         1.28188916877400    3.17242591042037   -1.42388673370968
H        -0.74484460028574    3.53368873535765   -2.29598572806002
H        -0.39684170316465    3.44514550809797   -4.03840543037439
H         1.06786418978020    5.44335987033381   -3.19653796519350
H         0.92729750428376    1.36428168124584   -3.89068240790682
H        -0.13944156475869    1.19877716701445   -2.64517475805058
H         1.77589429286778   -1.38333505837383   -1.08581940751191
H         0.71419019748928   -1.38184720885476   -2.56007001458930
H         0.14085592181196    0.43291053372302   -0.35996026512548
H        -0.40548018161646   -1.09163517094747   -0.43819167472059
H         2.26581415542084    1.64766396718322   -0.47133694514217
