35
 energy: -49.724849841942 gnorm: 0.120858740565 xtb: 6.4.1 (79825abcba525fcdf90b791dcacef51065a7a4e7)
C         3.73258162571084   -1.32081873540470   -2.99238592874440
C         2.98276238142305   -0.02399003360290   -3.25976364120438
N         3.97759508748030    1.06051133920609   -3.01471943330306
C         3.71636353277733    1.65804788217647   -1.88798229376595
C         4.19864461555237    3.03948993984821   -1.57785692541617
C         3.62096511555055    3.80195090174197   -2.77629835597632
N         4.33979813257357    4.71881074775349   -3.34400595684932
N         2.35690138699639    3.50176996020562   -3.25592749894541
C         1.15498229887871    2.99277449832402   -2.56729037947160
C        -0.04702616446067    3.89478639118336   -2.94962796567322
O         0.20789612171174    5.25694842933230   -2.60615283355239
C         0.83988785547127    1.52200423979831   -2.91917368325585
C         1.82580000053403    0.47863173830400   -2.31975502187997
C         1.01015067821456   -0.73680382706655   -1.77963546413720
N        -0.01290546692844   -0.20321102803449   -0.86687217019689
N         2.65604849086417    1.04941709948193   -1.24065889780037
H         3.89620052229099   -1.46800774728028   -1.91821558517044
H         4.69096045861889   -1.36086998591799   -3.52063585490824
H         3.18546047813262   -2.21644012202509   -3.29382985379109
H         2.65296997287495    0.13367836118442   -4.29566521016099
H         5.28071499348959    3.03571674344040   -1.73205356910284
H         3.92204247889385    3.34045138412005   -0.56548967117137
H         5.25612529831431    4.73600736464294   -2.87898297908573
H         2.08592317773785    4.17504733802618   -3.97646478096996
H         1.27175013388558    3.15293526826906   -1.48688597449053
H        -0.93895903233100    3.53406672830278   -2.42716775017323
H        -0.09787659571199    3.81287994939765   -4.04261694175012
H        -0.15584618922764    5.87223587538332   -3.27096871008876
H         0.87961135768649    1.31085642718328   -3.99616432650610
H        -0.13922949257820    1.31361903470495   -2.46714526294429
H         1.66478023223568   -1.49257847034975   -1.34638242661018
H         0.52606319941205   -1.09138374172060   -2.69811960400830
H         0.39440278020310    0.29966405477271   -0.08226196014287
H        -0.68490908221855   -0.91832980847746   -0.58400938351129
H         2.30379699325257    1.60071852996923   -0.46076204909540
