35
 energy: -49.713677770409 gnorm: 0.126923526209 xtb: 6.4.1 (79825abcba525fcdf90b791dcacef51065a7a4e7)
C         3.74697416815538   -1.47962059317106   -2.52820863859078
C         2.98967295397152   -0.28166720448986   -3.08218244335203
N         3.95416417666472    0.85118129167580   -3.19305607230866
C         3.81412374786012    1.56212439698685   -2.11149378392215
C         4.24078775991900    2.94143703639751   -1.72084127374042
C         3.58377495279950    3.86798706070021   -2.75096815043442
N         4.00074254373204    5.07428773758063   -2.97596036168521
N         2.41861505400729    3.49378702346059   -3.39934039689101
C         1.21606219020579    2.90928088748706   -2.77473959755207
C         0.04341050773111    3.79631322892520   -3.26737890105530
O         0.03776317847918    5.08463584645451   -2.65204249539635
C         0.97014831467199    1.42337544269716   -3.11808038326965
C         1.83958064823179    0.43787412672939   -2.28571853567378
C         0.89937353611636   -0.58060260798996   -1.56946978787228
N        -0.20471360723134    0.10308278831203   -0.87804529856287
N         2.72414180979969    1.16807728126710   -1.35624995450623
H         4.76780574065210   -1.46336770525820   -2.92810415356365
H         3.10557298613600   -2.32671877782975   -2.79310724091377
H         3.72466822564539   -1.36126555145819   -1.44292425413463
H         2.71098235990566   -0.57998386258355   -4.10201239749516
H         5.32638017478044    3.03948003159436   -1.80173509238004
H         3.98292062061603    3.12653538931641   -0.67622788904380
H         4.87304202721649    5.39175796298682   -2.53493448553778
H         2.27519487628567    4.12175787507440   -4.19368846693476
H         1.25049477886585    3.22647948330123   -1.72366427817335
H        -0.87292495520289    3.21650501688958   -3.11645060808265
H         0.13270240026121    3.95252534702461   -4.34975779039982
H         0.85195663085558    5.54977181724861   -2.92334456108632
H         1.35474701006068    1.32092036511223   -4.14163155976960
H        -0.06806033808122    1.11831487937157   -2.92970386751117
H         1.50051774423331   -1.12258211121795   -0.83986221199345
H         0.52983743828063   -1.29372279695078   -2.31685414075347
H         0.30758014291802    0.62685010146065   -0.17262382499865
H        -0.80779906813159   -0.48919021613238   -0.30489985688954
H         2.18671425487959    1.95263066800522   -0.99306804372594
