35
 energy: -49.719519858242 gnorm: 0.110410133249 xtb: 6.4.1 (79825abcba525fcdf90b791dcacef51065a7a4e7)
C         3.74569778029956   -1.41162443847049   -2.65419840529343
C         2.91445081908134   -0.31233436816148   -3.29923660939686
N         3.90515100915095    0.79275535445254   -3.45145965695086
C         3.73430430421196    1.52867073666854   -2.39123875236103
C         4.51925797715977    2.73873486963116   -1.99532530693940
C         3.61284626125729    3.88982169795918   -2.44780637081006
N         3.99550591390770    5.12696024987872   -2.39580051166727
N         2.41663276152228    3.61911089623811   -3.09107830705738
C         1.23443173778281    2.86383650199525   -2.63296442158669
C        -0.02614347186163    3.64123231157724   -3.09257050718901
O        -0.09838127626331    4.96113510837125   -2.55304824560969
C         1.15707937552246    1.49129070750583   -3.33752544315359
C         1.83099551964438    0.42406359948756   -2.42823173453030
C         0.90359270206844   -0.42665133056260   -1.50600361731814
N        -0.10166324470773    0.49122915746834   -0.94791950362576
N         2.78703991877105    1.05864173751329   -1.49933633631079
H         4.11074468643136   -0.97978143269777   -1.71476769482063
H         4.55845607615423   -1.54015645399078   -3.37672560885925
H         3.25116319171006   -2.37371172420044   -2.50529823410911
H         2.34746982250683   -0.54005371843083   -4.21213905414655
H         5.45290865657402    2.86740408947178   -2.54886643452032
H         4.67119847029740    2.81972893283234   -0.91721211911873
H         4.95385125752972    5.25556619910689   -2.04761625287965
H         2.12465064210613    4.55342794511904   -3.38722642781160
H         1.30170571379457    2.84867703929904   -1.53669606992786
H        -0.94899043740568    3.11445459853028   -2.82896793329933
H         0.01786376425893    3.81135419299259   -4.17564079310216
H        -0.17621151834382    4.88994777107219   -1.58261428193300
H         1.67777117952326    1.62623310859893   -4.29499127178043
H         0.10330726672959    1.28314378977788   -3.56701199496931
H         1.62644072188082   -0.63596422501871   -0.71789053777917
H         0.41871386190972   -1.24769167110307   -2.04865081218103
H        -0.62885453563512   -0.01950469103822   -0.24391892170350
H        -0.73369977030944    0.81713481341771   -1.68093411506564
H         2.41699310772374    1.67621673581471   -0.77966977198124
