35
 energy: -49.725792631440 gnorm: 0.117785184569 xtb: 6.4.1 (79825abcba525fcdf90b791dcacef51065a7a4e7)
C         3.53786945592133   -1.47525122202351   -2.64842219165428
C         3.05751651492303   -0.11400104727658   -3.12981957959390
N         4.13667817814356    0.90475831959556   -2.97677892320116
C         3.75767390595848    1.64933489966294   -1.97838527125371
C         4.36991957012214    2.99702124523929   -1.76378871385142
C         3.54394472399252    3.91489920238604   -2.67295745529582
N         3.86351191782133    5.09542213983906   -3.10177817536622
N         2.52355019139925    3.27381784369109   -3.35546719549577
C         1.20912931829158    2.91709629491260   -2.78717635274485
C         0.07360340601472    3.85355583522294   -3.27529133215509
O         0.04359429215523    5.13970408783825   -2.65612409336475
C         0.94243094611764    1.41578267640215   -3.03456455819257
C         1.86707776443306    0.43384836195539   -2.25946137778431
C         0.93880135450762   -0.64200130551568   -1.61514240475241
N        -0.16482963124511    0.06101298680960   -0.94263104734960
N         2.65327253487184    1.20322020384154   -1.27481846095207
H         4.52570431706965   -1.65452822609350   -3.08923930075212
H         2.97467798786919   -2.33973874111272   -3.01532650268207
H         3.77889054724056   -1.47980637490634   -1.58341714694766
H         2.71800345536390   -0.19052666565017   -4.17173566130864
H         5.45130655418428    2.98432743784498   -1.92224433309181
H         4.23792470350914    3.27155480292238   -0.71536958069621
H         4.73291411731907    5.46658470720023   -2.69857137178192
H         2.46477229147875    3.66874527639201   -4.29699950200320
H         1.19274059861844    3.03989836527154   -1.69575024640355
H        -0.86758094884295    3.47004219470264   -2.86820794034169
H         0.06589870648947    3.93499061957231   -4.36947062782419
H         0.95799318465578    5.43845601493064   -2.82192280445223
H         1.03140875363400    1.12182310660843   -4.08895581531417
H        -0.06450205484024    1.07642050940012   -2.75645644758799
H         1.60537227068494   -1.22099914517802   -0.97648124837405
H         0.48132133539646   -1.22993790534755   -2.42057600969982
H         0.23077103677824    0.72363333449592   -0.28018789884337
H        -0.81929108290224   -0.60927327027346   -0.53594735389210
H         2.13111639371410    1.78536928808698   -0.62312154063326
