35
 energy: -49.723632119200 gnorm: 0.105537831916 xtb: 6.4.1 (79825abcba525fcdf90b791dcacef51065a7a4e7)
C         3.66335095652075   -1.39342297124244   -2.76794418911613
C         3.09538474500328   -0.02988454050389   -3.13354203135752
N         4.07715049488810    1.07713852344180   -2.94244530509774
C         3.71187099156960    1.77270155517790   -1.90437431174097
C         4.29555306763970    3.11973950578113   -1.61808956859722
C         3.73877868793032    3.81165344245269   -2.86812140366242
N         4.47706397289428    4.53191642125082   -3.65285122444156
N         2.43661791059834    3.65251208140381   -3.31203712358183
C         1.22463627827669    3.04523764519337   -2.72874884137005
C        -0.09636330816967    3.73557446938027   -3.15656535624671
O        -0.45160027779886    4.79096346103785   -2.26302927883303
C         1.06617864942359    1.54548979847017   -3.06329196885213
C         1.92233350234804    0.53326127436725   -2.24944678226395
C         0.95264010504135   -0.55743489847508   -1.69774655201395
N        -0.17666028530779    0.00237467115882   -0.93893442153973
N         2.67218574702538    1.21938028192093   -1.17869038157425
H         4.24517962131750   -1.34239475262779   -1.83996293446629
H         4.34609508703637   -1.72697107936444   -3.55645429948170
H         2.83548281046754   -2.10291938096438   -2.70797047210516
H         2.66369839516649   -0.11082498929202   -4.14042333951441
H         5.37866157351273    3.16929996517686   -1.47993436593117
H         3.88946733590576    3.47762682679337   -0.66994134907096
H         5.40800166738901    4.49116047207696   -3.21938665251830
H         2.49134456183171    4.14400543045638   -4.20721580361984
H         1.19085045730677    3.07028560133841   -1.63111912572748
H        -0.99263258168089    3.11213015943053   -3.07504131697795
H        -0.02652939617285    4.11849961122974   -4.18243614754367
H         0.13675540417498    5.56595660051602   -2.34107083364259
H         1.24488673122302    1.23324212328970   -4.10090221168536
H         0.02989955702614    1.26162869767702   -2.83531521304531
H         1.54497888244831   -1.21825894625062   -1.06537821405194
H         0.56573195187643   -1.11363530440288   -2.56066248079953
H         0.13847901697316    0.43857221108596   -0.07590750189943
H        -0.86555608472919   -0.71264698157833   -0.69984929319860
H         2.19636782387769    1.80143143631093   -0.49234699638908
