35
 energy: -49.719595833277 gnorm: 0.116465347764 xtb: 6.4.1 (79825abcba525fcdf90b791dcacef51065a7a4e7)
C         3.66428249732281   -1.44557935879697   -2.75607843999752
C         3.04458366152608   -0.10153324891787   -3.10962873560835
N         4.08647730926033    0.96610653091980   -3.08760828579338
C         3.82744554304730    1.66111723359470   -2.01770592031561
C         4.19997818279225    3.07241208208196   -1.69117688270714
C         3.51870126777649    3.88925688617984   -2.79568967184352
N         4.14742871101742    4.89884822545464   -3.31054103073119
N         2.36634504678398    3.44059451390986   -3.41921755695162
C         1.15074471850423    2.84406678625973   -2.83238073421581
C        -0.08823051881395    3.67688443901475   -3.25188869501836
O         0.02859570812599    4.90828511296852   -2.53883191624803
C         0.94378988421480    1.33993470816711   -3.11703473165951
C         1.84970446208582    0.43216454420536   -2.23656682023224
C         1.01775155262953   -0.56395654623893   -1.37060283883258
N        -0.03887236129206    0.14829240656251   -0.63524627129045
N         2.66201069520561    1.30304056349506   -1.36404721992951
H         4.44428444726494   -1.65633456768805   -3.49733202313420
H         2.88580091550398   -2.21278444239340   -2.82319668876813
H         4.17339155194544   -1.39004476625574   -1.79167627435034
H         2.79119200472906   -0.12889853339553   -4.17815960102448
H         5.28115580259947    3.18587126539359   -1.80453077436843
H         3.83402270586045    3.34289253572226   -0.69876018475641
H         5.10779142665660    5.08941280282886   -2.99815320578454
H         2.22514223359722    3.82974475321944   -4.35438034523439
H         1.23179589831331    3.10923163588023   -1.76951752822215
H        -1.02025538710041    3.26589984572604   -2.85057971580226
H        -0.15075626986753    3.79019143018915   -4.34146263865128
H         0.75734726329621    5.41340804876187   -2.94704662823721
H         1.20661824526697    1.26256811779444   -4.18052232543657
H        -0.12250753959962    1.28244881821632   -2.85987712039675
H         1.57168225745491   -1.31328543023649   -0.80570432994169
H         0.45553658936806   -1.11337021867731   -2.13593914364216
H         0.21546107266391    0.83832038718132    0.06730082344953
H        -0.49895033398528   -0.63795136731341   -0.17357098248455
H         2.26920701171210    1.89665526809856   -0.63632452790571
