35
 energy: -49.725867503033 gnorm: 0.100417634899 xtb: 6.4.1 (79825abcba525fcdf90b791dcacef51065a7a4e7)
C         3.72931634000252   -1.48823886030539   -2.60684894005570
C         3.04520313880925   -0.19520745579725   -3.02582787935896
N         4.07624281146462    0.88310740427160   -3.01709531963352
C         3.77582988497311    1.72207460213915   -2.06803550691668
C         4.26832815480628    3.10583334419074   -1.78552510305298
C         3.57673446576754    4.00522838633625   -2.81708165497274
N         3.96800890074073    5.07503790547518   -3.43518902453863
N         2.38046266032795    3.51298652236048   -3.31169420273653
C         1.18750758653933    2.90732785733368   -2.68884369011082
C        -0.06737842539027    3.71750095354063   -3.10539199904357
O         0.14152966720383    5.11406926275646   -2.89467814435351
C         1.08085677665741    1.41168314178007   -3.06025187948693
C         1.88820959155426    0.43045304594661   -2.16285529212120
C         0.94134838866257   -0.57114436987318   -1.43172395610842
N        -0.30046644222661   -0.04746329872095   -0.84167648127557
N         2.76304594993838    1.21803897051574   -1.27182964463056
H         4.25245063733888   -1.90248977359037   -3.47690892082593
H         3.10620245790526   -2.35393436974215   -2.35897306530695
H         4.46767021230856   -1.23086812424650   -1.84465373565703
H         2.67405959897811   -0.38104895165295   -4.04289711715825
H         5.35415481963144    3.08284147941753   -1.90848430192358
H         4.00283901509621    3.53248366864538   -0.81626816129898
H         4.92443495728034    5.30405493370980   -3.13686375070429
H         2.16264449168224    3.80133627876065   -4.26841530403037
H         1.18709960722575    3.09635636554663   -1.60679565549514
H        -0.90639356581981    3.42154923326712   -2.46735299586780
H        -0.31412686215592    3.56831046960639   -4.16405943503868
H         1.06970224687372    5.40654341196046   -2.97097882917973
H         1.39700892099721    1.38091632709015   -4.11152322517607
H         0.01618998330669    1.14360100146634   -3.02798021255196
H         1.53369286443215   -1.09439979530765   -0.68154055116833
H         0.61170024742894   -1.30308772956562   -2.17956867944347
H        -0.22845108563905    0.16108697138672    0.15115638871019
H        -1.06905890557878   -0.71727961056814   -0.90173325489795
H         2.24890712778706    1.79532689213633   -0.60952049406027
