35
 energy: -49.723677813284 gnorm: 0.108739285777 xtb: 6.4.1 (79825abcba525fcdf90b791dcacef51065a7a4e7)
C         3.58431648394707   -1.38270409980384   -3.11334386822615
C         2.99510610862741   -0.01590260949044   -3.42983913477715
N         3.96750951099786    1.10252657889872   -3.25828809254425
C         3.74666059667932    1.52535336859550   -2.04697820017272
C         4.13762842558570    2.85906703032068   -1.49425138957092
C         3.56340252351317    3.91159705580051   -2.45016316776271
N         4.13024901656863    5.01417516028519   -2.82785533266476
N         2.38753382697678    3.59506484776126   -3.10982217081115
C         1.19778807284132    2.91696888686255   -2.55973319779238
C        -0.04940924929526    3.68858104825264   -3.06346462666549
O         0.23105929788437    5.08104394430669   -3.20779215989595
C         0.97644284617179    1.46917894003434   -3.05083613435183
C         1.86082916735953    0.36276660109022   -2.40766877792842
C         0.92024611558429   -0.62692336541975   -1.65260995307270
N         0.37905736789044    0.23802252088627   -0.59266404161609
N         2.73373682468814    0.89792619992662   -1.34409303783678
H         3.68325666351854   -1.50307704721629   -2.02798730313568
H         4.54799363112623   -1.41696622238031   -3.63227984057062
H         2.89641894024430   -2.15009437654160   -3.47425493514337
H         2.65260382407472   -0.02196710257336   -4.47356793693048
H         5.20519266622418    3.06282209668959   -1.61025830126039
H         3.85517712611661    3.06782611411588   -0.46051308211308
H         5.07344831442031    5.12239024792747   -2.43433005947138
H         2.06871071133752    4.26274812383750   -3.81583665819047
H         1.25421170406562    2.91611315897812   -1.46274845655079
H        -0.76989047543242    3.43782057875416   -2.27819168698588
H        -0.33461918099511    3.38841494245790   -4.07957236433532
H         0.26004511830374    5.39561035385153   -2.28417153535795
H         1.18142950517972    1.45450132781368   -4.12964809467951
H        -0.09008092906341    1.25447359689867   -2.89966233050655
H         1.53332670778946   -1.38912470603148   -1.17237598825964
H         0.18001099459200   -1.11307670020657   -2.30021137066737
H        -0.31226585669663   -0.27757350171837   -0.05356342016127
H        -0.13015468301502    1.03468049669607   -0.97871357607839
H         2.47035270787331    1.22154581028997   -0.41557129891547
