35
 energy: -49.718476167862 gnorm: 0.114816713622 xtb: 6.4.1 (79825abcba525fcdf90b791dcacef51065a7a4e7)
C         3.77906179704059   -1.35667838250527   -2.80371342062907
C         3.13184172449067   -0.01581627429017   -3.11784621074271
N         4.12009029061402    1.06484818655205   -2.83251990667968
C         3.69265282846093    1.71425351794490   -1.78829848718195
C         4.13387362252757    3.12538522236406   -1.56205415786595
C         3.65557539860643    3.70337692699664   -2.89939428078353
N         4.52056252317349    4.01737672245390   -3.81199836333241
N         2.29348375414521    3.77447050947690   -3.13952317801341
C         1.12197914766621    3.03552915489163   -2.63016124222888
C        -0.07168105391616    3.85982760047463   -3.17819335970223
O        -0.36795411719497    5.05988514423155   -2.46367946166535
C         1.05225597564656    1.54108979750520   -3.01494843895033
C         1.92707832667849    0.50602375239792   -2.25122349300639
C         1.04603659176000   -0.57731632091757   -1.55520891399870
N        -0.22812104781449    0.00059922442925   -1.10019473288491
N         2.62413910976027    1.14607732626829   -1.11808862236699
H         4.79218875849924   -1.33222359897010   -3.22234619917203
H         3.29361740150441   -2.24599299449324   -3.21917139908520
H         3.93692199856256   -1.54115611712977   -1.73910279588222
H         2.85059821302865    0.10794486190872   -4.17250240269755
H         5.22539648098037    3.17506893824515   -1.53418793015519
H         3.77950171518742    3.66353673758056   -0.68069866909694
H         5.47557427287829    4.02663072482301   -3.43244008148545
H         2.25230921736838    4.16467863057040   -4.08395309883106
H         1.17815177579822    3.11388148524920   -1.53596499828420
H        -1.05765852405535    3.38509251964414   -3.14498770151289
H         0.10208465563665    4.14893515006642   -4.22229183387648
H         0.53253069707644    5.41218882707054   -2.32997652241096
H         1.37088877339484    1.50863528434517   -4.06541978520705
H        -0.00806951736977    1.25520456154939   -3.03505651698985
H         1.53723454921285   -1.06171849974725   -0.71169101372655
H         0.77758709249686   -1.30914162013217   -2.32724991426838
H        -0.21515988356473    0.17231029802765   -0.09782561261061
H        -0.94394199831303   -0.63381747395564   -1.45812057189438
H         1.96980563657375    1.68140483503465   -0.55105629759294
