35
 energy: -49.729860692292 gnorm: 0.101420898953 xtb: 6.4.1 (79825abcba525fcdf90b791dcacef51065a7a4e7)
C         3.57986273304072   -1.45812718676786   -2.52043001550286
C         3.00393872208991   -0.17003060371301   -3.09016959607759
N         4.01127913495575    0.92675807464642   -3.18073396335276
C         3.72879131188301    1.64013851477837   -2.12901279970033
C         4.29412731417195    2.98999718063683   -1.82009253328148
C         3.58834396131942    4.01846517646596   -2.71197012254578
N         4.10543987771897    5.16530600548928   -3.02343879226536
N         2.43130637309377    3.58423699776070   -3.33704591769959
C         1.23454178652329    2.88366294454228   -2.83221179667720
C        -0.02535257549827    3.64489029199334   -3.31989095739607
O         0.07983260721490    4.89842019167134   -2.64458003983747
C         1.04215155616566    1.38397500867424   -3.14874558520648
C         1.85333023877021    0.44461927036341   -2.21090143065593
C         0.91029542330186   -0.55512262770859   -1.47232302810730
N        -0.28329288899110    0.12720697640938   -0.94861009745960
N         2.75589696649675    1.14760782635266   -1.27776834519479
H         4.50982216461867   -1.66208862286118   -3.06435360894309
H         2.96458371991482   -2.35379166498571   -2.65592525709459
H         3.94534193067258   -1.43657525990947   -1.49168896951810
H         2.65646572147845   -0.42486453826797   -4.10063315909863
H         5.37296641433968    3.06424343469277   -1.97902909856840
H         4.16335367374647    3.25653707276392   -0.76945998797388
H         5.01438655501921    5.26470558735366   -2.55425521409608
H         2.23826581566372    4.17328096332112   -4.15047578607362
H         1.16831167059401    3.08069755184350   -1.75362437160143
H        -0.96858953318870    3.15322416014975   -3.06066894752832
H         0.02677711106131    3.76831420860910   -4.40891270522209
H         0.98908071788894    5.22613918093012   -2.78145735507678
H         1.28152230380725    1.23199894972135   -4.20972397274442
H        -0.01517714406949    1.10478707865882   -3.04610545339988
H         1.38934494973620   -1.07937225539602   -0.64581395885237
H         0.65178237936421   -1.34709298382780   -2.18621004792077
H         0.12806543010434    0.78741766675083   -0.29339813214775
H        -0.97493688599276   -0.48518709839042   -0.51318253321092
H         2.37759668120120    1.83776829245797   -0.63215164906802
