35
 energy: -49.722948867558 gnorm: 0.107676729241 xtb: 6.4.1 (79825abcba525fcdf90b791dcacef51065a7a4e7)
C         3.60607796956590   -1.39261312763722   -2.81410052134303
C         3.04930879757928   -0.00964255874899   -3.11887080871630
N         4.12583421547466    0.99518341516229   -2.87949705743374
C         3.73729491091070    1.74461484418411   -1.88842784636276
C         4.33619260438746    3.10359184094874   -1.71050078249081
C         3.80700679966924    3.78145429065372   -2.98006255624771
N         4.62810509861565    4.32812336662119   -3.82065480328068
N         2.47147504895893    3.75805239463726   -3.34587281370280
C         1.28425179204791    3.14252306684683   -2.72174817554851
C         0.13208632955000    4.10787288285973   -3.10286011355581
O        -0.88169757006463    4.26278830080141   -2.10953772194167
C         1.05013129461912    1.65989960786828   -3.08683282215984
C         1.85318035785040    0.59065196483287   -2.29199110171453
C         0.93004264349618   -0.48447549397773   -1.63914022272129
N         0.04860106390992    0.16235143687944   -0.65467202197434
N         2.61438104601016    1.27709135556195   -1.22947925224042
H         3.72672390955964   -1.47227023202202   -1.72718884893284
H         4.58075652621648   -1.69756210117722   -3.20925860072000
H         2.90984589895524   -2.14203125344384   -3.19617517612404
H         2.86315687026391    0.03940142421591   -4.20037742801376
H         5.42723671130262    3.03811463861204   -1.71212611886764
H         4.01248686855384    3.70352527037502   -0.85770040515806
H         5.60264515232483    4.08321454154267   -3.60504190814202
H         2.28308361669169    3.98577775223525   -4.32493125360306
H         1.43360341628768    3.30330074998109   -1.64545615370852
H        -0.44061350972283    3.73119764618840   -3.95653350139543
H         0.59319062519719    5.10127703329193   -3.16957108727217
H        -1.40713552522283    3.44125747481045   -2.06630211920628
H         1.00210073690054    1.57218519134977   -4.18048241958719
H         0.00993650006551    1.48262501565033   -2.78188464741139
H         1.61420127410090   -1.22239565283971   -1.22099650169144
H         0.35892964566764   -1.02772512870895   -2.40228535016167
H         0.37341314512094   -0.11480712637435    0.26840803004860
H        -0.91713255086284   -0.16815031366842   -0.68817221281837
H         2.07305338047893    1.91597194497872   -0.65064469612076
