35
 energy: -49.724513304199 gnorm: 0.105494739984 xtb: 6.4.1 (79825abcba525fcdf90b791dcacef51065a7a4e7)
C         3.63357004782915   -1.43998265070518   -2.32906171757473
C         3.03564080700988   -0.17586544603605   -2.92903901440479
N         4.08104164272872    0.88264793544631   -3.04114843598120
C         3.77950671796442    1.73602185773717   -2.10538240604635
C         4.36870654459345    3.10964968992315   -2.16146334664542
C         3.60510938852250    3.80031792808663   -3.29778149640957
N         4.24704831960834    4.39903557061230   -4.25124695896099
N         2.22163683052888    3.84741333574162   -3.34015502428629
C         1.19821433845411    3.04366464630398   -2.64409368432881
C        -0.18098873588185    3.72766424415544   -2.83003787954110
O        -0.18338064553391    4.93660185843746   -2.07049190865371
C         1.15830471005774    1.54767459285790   -3.02709823230201
C         1.91432491378769    0.55280141405957   -2.10048479330146
C         1.00058772450248   -0.47561505160774   -1.36445458751883
N        -0.17284271202775    0.06661480963508   -0.66192362803619
N         2.84157098259312    1.26889872435726   -1.20216619411511
H         4.03966983930333   -1.31337860543929   -1.31845197411254
H         4.41220545331145   -1.79070980981374   -3.01452466063535
H         2.95206987019773   -2.29080623736717   -2.39234202899199
H         2.64154356088091   -0.34285058012174   -3.94072955577553
H         5.38810208791029    3.09578536959643   -2.55555426564805
H         4.37942324024392    3.74334667174523   -1.27248231636983
H         5.26877094328293    4.29021397484047   -4.27218254871936
H         1.88540148556162    4.13886701335967   -4.26097321199012
H         1.44694319307393    3.15932187290882   -1.58045970541938
H        -0.93562731845290    3.08453723216463   -2.36577949408592
H        -0.47455398165407    3.95408151839599   -3.86274015238379
H         0.66401215184746    5.31008191587595   -2.37920756516267
H         1.48992059594149    1.40759718171842   -4.06463349473469
H         0.09081140800507    1.33539260159915   -3.17481167113167
H         1.63219581966797   -0.93538906256381   -0.60476884275414
H         0.69735369205778   -1.22357014159981   -2.10761877473920
H        -0.84498269489413    0.41531315763723   -1.34091835667540
H        -0.74852312594316   -0.54449021010685   -0.08042745880626
H         2.48602305705279    2.01600631906314   -0.60914899422057
