35
 energy: -49.727560855945 gnorm: 0.110844260746 xtb: 6.4.1 (79825abcba525fcdf90b791dcacef51065a7a4e7)
C         3.51588623432013   -1.32555886175919   -2.94804037595937
C         2.92903520778932    0.06606029749397   -3.13374556774486
N         4.03724116790466    1.02234256553179   -2.84515282746238
C         3.68757560976621    1.66116535463454   -1.76604770666156
C         4.22078663022302    3.02682024093579   -1.46969035452210
C         3.67259650824479    3.81829401633222   -2.66316386994649
N         4.20047118594035    4.90392146504875   -3.13476345868333
N         2.49920812595542    3.43633155008085   -3.29187223283496
C         1.21477403685522    2.95291959007627   -2.74924076893857
C         0.16326735675568    3.77523755738873   -3.53839139741773
O         0.28114693745227    5.11788524261762   -3.06738442672749
C         0.74806891258143    1.48730896648065   -2.89222101715341
C         1.74553794035898    0.51502924701937   -2.19963214126027
C         1.02936369492008   -0.68859302708532   -1.51211166008706
N        -0.17309537717128   -0.28276666510925   -0.76786767559731
N         2.52694229870207    1.21420022023924   -1.16034194843945
H         4.26265807204547   -1.35637025429937   -3.75032471689424
H         2.72448958662845   -2.07696261944233   -3.03873666116773
H         4.06751949018802   -1.43365496563448   -2.01189741327451
H         2.70972954882676    0.23262631760428   -4.19717173009577
H         5.31230479879335    3.04267645534207   -1.52449729391286
H         3.88218482512921    3.33958661290018   -0.47999342771634
H         5.16488080874910    5.14838643465569   -2.87718140033280
H         2.45093484526513    3.86853818729471   -4.21749240427770
H         1.24905872804010    3.22870061560090   -1.68654171852850
H        -0.82990267715048    3.44699002768901   -3.21513539309181
H         0.37171724414257    3.61768440341143   -4.60405784801347
H         1.05770430281916    5.42350797950530   -3.57376438710056
H         0.58384353487172    1.27036041739713   -3.95619166799079
H        -0.21433531314618    1.36461185695544   -2.37729539943479
H         1.82883276294963   -1.18416717125764   -0.96193092872406
H         0.79820007028764   -1.43840201136686   -2.27894317112316
H         0.06588917712962    0.03948262599830    0.16671154127977
H        -0.84598266837275   -1.05100057469386   -0.77373600712600
H         2.07858380289831    1.70072703936217   -0.38670134428089
