35
 energy: -49.718002677005 gnorm: 0.121705456148 xtb: 6.4.1 (79825abcba525fcdf90b791dcacef51065a7a4e7)
C         3.56490400965829   -1.52501241647698   -2.47360972825725
C         3.17517123757076   -0.18319057635777   -3.07619331462206
N         4.25923266048373    0.83393376029220   -2.94910702109658
C         3.78395813576872    1.66429444431915   -2.06624594503296
C         4.30824668537952    3.05023357660517   -1.86265525693698
C         3.53850765702843    3.89757601319543   -2.88286837262376
N         4.11116977568771    4.85854865328035   -3.53726465159020
N         2.22433849887836    3.63764666823846   -3.23416026661698
C         1.15313602983813    2.87150381147478   -2.56823430662551
C        -0.13182965651283    3.68514417014372   -2.87069818799912
O         0.04740385139650    5.03605441034008   -2.44483102853093
C         1.10960373578917    1.44832685903557   -3.16735355489504
C         1.94835065457353    0.44847814806659   -2.32073800339375
C         0.94387954613657   -0.56794453155207   -1.69446384368716
N        -0.19244937833908    0.17279550182123   -1.12475973937102
N         2.73600274487667    1.17649533914901   -1.30626665301592
H         4.41196006176043   -1.93313901256545   -3.03770760316117
H         2.75604245644706   -2.23343413933870   -2.68103136688057
H         3.93850551249278   -1.40106277316299   -1.45507839710585
H         2.99131629971045   -0.32547705118228   -4.14981631473847
H         5.36550865267060    3.06871537961353   -2.13928260915186
H         4.15383334903110    3.37238386276028   -0.83098200197770
H         5.10452177108317    5.02493554623389   -3.33290032689685
H         1.95103740707467    4.18386589028028   -4.05443867664090
H         1.31558759991420    3.11396489674017   -1.50928104810558
H        -0.92903192174629    3.32137501582158   -2.21436888792714
H        -0.55626771628322    3.72071850607559   -3.88188863796762
H         0.90719633532180    5.44716815698821   -2.65604095265747
H         1.54939447553828    1.39107843827736   -4.17203108818787
H         0.04043696106502    1.20178616395974   -3.11710437176499
H         1.54193714560523   -1.07607415853250   -0.93843820842844
H         0.51816900220460   -1.10811489302372   -2.54925459781585
H        -0.14190310834496    0.62344395524880   -0.21439850115766
H        -1.04607505246107   -0.38429483299901   -1.06176248501163
H         2.21229425974545    1.65244167546615   -0.57451670221193
