35
 energy: -49.716201239097 gnorm: 0.118409167135 xtb: 6.4.1 (79825abcba525fcdf90b791dcacef51065a7a4e7)
C         3.47927763735040   -1.41498649540498   -2.64646082351365
C         3.03394072503851   -0.00465806149954   -3.00441779847921
N         4.16313216717152    0.96965931466050   -2.96550323655064
C         3.83785140138566    1.77625376421029   -1.99677920411443
C         4.15976875028386    3.22814867621363   -1.83701264566048
C         3.68654213418367    3.66090344219934   -3.22988812448066
N         4.31996150176599    4.21822881617581   -4.21366307463453
N         2.32935154239007    3.59742171110882   -3.49824168019266
C         1.22023680092573    2.95364504275531   -2.76795195960528
C        -0.03055521079126    3.73193257952401   -3.25212103689828
O        -0.37734396063102    4.67508335806399   -2.23789712928440
C         1.02034238400380    1.43650697906030   -2.97915296659667
C         1.91251542879042    0.55838864123249   -2.05563407578770
C         1.05735742694863   -0.49518807596401   -1.28558378070158
N         0.09490782765297    0.25491494546854   -0.46367246764720
N         2.82034251231387    1.32211484835520   -1.17692524241935
H         3.86978796344008   -1.53644882118985   -1.62909841545285
H         4.25876103755098   -1.65114594327123   -3.37842832865542
H         2.67451600781900   -2.15270940590109   -2.66817013144965
H         2.66382224215553   -0.01479412140631   -4.03864407688352
H         5.23439588835729    3.42181071517580   -1.78865279802168
H         3.53724689081430    3.65978678581075   -1.05080078603202
H         5.30583878186560    4.50824590336598   -4.22522315638173
H         2.09235207289264    3.86455811924270   -4.45656051588403
H         1.30148303830866    3.19285209572718   -1.69896228526373
H        -0.92730408737295    3.10451888842458   -3.28077603414593
H         0.09817301997751    4.26664444339881   -4.20155855112070
H         0.24812846506032    5.39567296315317   -2.03197936566210
H         1.31004030495747    1.32169602737959   -4.03222645763245
H        -0.05293900267373    1.23147608864685   -2.86755427718878
H         1.64633948809106   -1.19421608425566   -0.69236937593092
H         0.41367411366051   -0.99727446269568   -2.01856520204082
H        -0.59723779855185   -0.33478362212691   -0.00805577606661
H         0.47156168943084    0.85192438592132    0.27436999776945
H         2.32220962090018    1.96183210760540   -0.56139381149259
