35
 energy: -49.718633906665 gnorm: 0.101349910125 xtb: 6.4.1 (79825abcba525fcdf90b791dcacef51065a7a4e7)
C         3.55620786167385   -1.59513046654266   -2.70786420975532
C         3.02856484404060   -0.23623986023377   -3.14431996851410
N         4.03482719429170    0.86479399180697   -3.17660864191092
C         3.85512280537733    1.52561452589138   -2.06942709439663
C         4.38796501692707    2.91377374255213   -1.90741446272568
C         3.54649320942048    3.99153458528014   -2.60144539352704
N         4.03708548358899    5.16898209566645   -2.83075170258189
N         2.27889006312190    3.74749747302445   -3.10308069638626
C         1.13604657697658    2.90172162000433   -2.70750651023603
C        -0.13218315177557    3.59821429398160   -3.26529065397604
O        -0.17618201586644    5.00879495087999   -3.04902167908406
C         1.19257190885652    1.43970492209045   -3.20307045003008
C         1.92761628646204    0.44989995778770   -2.25441475441288
C         0.94337083742519   -0.45615456307338   -1.45153076155210
N         0.07086626982352    0.44211602570547   -0.67929522686819
N         2.84026686062659    1.04775492585994   -1.25983175543344
H         4.01900508962972   -1.61988560270860   -1.71414211929822
H         4.20380875340113   -1.86420599856225   -3.54890733051687
H         2.76322422744914   -2.34517280732320   -2.67686237696543
H         2.75448142222348   -0.36613386664427   -4.20012310427880
H         5.39961128195134    3.04813494545483   -2.29880434633846
H         4.38166919251644    3.18727520036352   -0.85047013095605
H         5.06172752982526    5.09287906543141   -2.80806745189242
H         2.19879673004304    4.47319498655806   -3.81921879396516
H         1.02028060225630    2.87549303281746   -1.61550367654656
H        -1.09124395473376    3.17800637422572   -2.94551687165536
H        -0.01797821513738    3.50804553300104   -4.35283199293873
H         0.24139240856584    5.36075745918222   -2.23993500140671
H         1.67478569348235    1.49648234188527   -4.18811685153806
H         0.20336693354198    0.99025900145558   -3.36399516475959
H         1.58801912326976   -1.07285218107203   -0.82578639625103
H         0.42232898075619   -1.06275859930197   -2.20268164387007
H         0.15662634269173    0.18766237514997    0.30167118001411
H        -0.92054989494255    0.40232537455300   -0.92117490714148
H         2.44414977364303    1.60943609311104   -0.50892629608808
