35
 energy: -49.723012545164 gnorm: 0.121661540390 xtb: 6.4.1 (79825abcba525fcdf90b791dcacef51065a7a4e7)
C         3.39504006837722   -1.38131831712001   -2.53588878173634
C         2.90329723273445   -0.08506792510899   -3.16311151850615
N         4.03343785650652    0.88422044330795   -3.06748597783665
C         3.74473287972481    1.59679665936732   -2.01690851937511
C         4.32552696759135    2.96808206001026   -1.87759054614553
C         3.91317112244144    3.78690388946970   -3.10674294339210
N         4.64127377204102    4.51706787563836   -3.89183648401542
N         2.57216976951398    3.84797482081534   -3.44732410183618
C         1.45823702762053    3.19832510147753   -2.72967792232122
C         0.13005184216220    3.99646038511090   -2.78914209916514
O        -0.85122244746928    3.42204522820322   -1.92566427910600
C         1.20263788810834    1.77887627265948   -3.28294607244461
C         1.79303391171899    0.68038766463381   -2.35304982944183
C         0.66756282567101   -0.21681778260166   -1.75085899820347
N        -0.01645399827187    0.57213534351574   -0.71443440772930
N         2.68290494806452    1.12883020049633   -1.26374464207010
H         3.94659867011582   -1.31157769204845   -1.59079776214600
H         4.09958684666399   -1.83406977332206   -3.24141839880150
H         2.66645614780785   -2.17184639068804   -2.34463371303040
H         2.75898131453368   -0.40155673821975   -4.20509144592082
H         5.41747711262769    2.93784227811805   -1.84020659391573
H         3.94394280739020    3.48493994468677   -0.99485307181800
H         5.64006194692177    4.53076683774337   -3.65010920447231
H         2.35595272743104    4.29797015061492   -4.33988220704846
H         1.66834183362369    3.14140906774887   -1.65302736733402
H        -0.38370289054229    3.93755394821485   -3.75413624065816
H         0.26650995966309    5.05165712808046   -2.52107805167207
H        -0.46698751454038    3.20056939264327   -1.05607861349810
H         1.72694172060384    1.68531091857813   -4.24337370135506
H         0.12012110591835    1.59617661271509   -3.31763219855560
H         1.08744776577205   -1.16367211970527   -1.41232264269580
H        -0.10706687887993   -0.45310423401242   -2.49099293453506
H         0.61881467948753    0.56636197876390    0.07979283687605
H        -0.94380816899587    0.23920864014376   -0.44579126608921
H         2.23212251842476    1.84163756634685   -0.69369696529957
