35
 energy: -49.729144391664 gnorm: 0.118377073846 xtb: 6.4.1 (79825abcba525fcdf90b791dcacef51065a7a4e7)
C         3.61739644175344   -1.43822130106721   -2.61698923259715
C         3.01463449384782   -0.12194729893528   -3.08558843067102
N         4.03976013523909    0.96058210225033   -3.02964646845067
C         3.78048054269772    1.61880226493453   -1.93678385299256
C         4.27327030054119    3.02030845269842   -1.76330897290125
C         3.57100416951289    3.95299675637220   -2.75741005614399
N         4.08119777355978    5.07220956775073   -3.16571136638498
N         2.44052224736928    3.44587324141496   -3.37615571692702
C         1.23546212175893    2.89788072890646   -2.72389713367770
C         0.04968667372212    3.80300702775856   -3.14735289692909
O         0.19363734603135    5.15528934361239   -2.71254639695804
C         0.94298672277504    1.41702825745704   -3.05223477904632
C         1.81980607430284    0.43305146465510   -2.22583950885533
C         0.96364706555704   -0.69156165718867   -1.56513261183716
N        -0.30505338454827   -0.11498918219940   -1.09347032396308
N         2.68564146302078    1.12481411729850   -1.25046756959121
H         4.48888252050940   -1.68564669532056   -3.23470305487033
H         2.88564821850930   -2.24280205946143   -2.48917525219549
H         4.05115707971970   -1.14522226846381   -1.65868294367664
H         2.76323760236354   -0.07769632140247   -4.15402460735080
H         5.31163928173744    3.03067651150999   -2.10440939085522
H         4.22692737123691    3.44418941066666   -0.75824617005904
H         5.04256459986035    5.18753591226684   -2.82122446707610
H         2.25211212171023    4.07385392931919   -4.16104263468663
H         1.37600866595924    3.11607236769818   -1.65656449832722
H        -0.87613084772584    3.54492018091292   -2.62306224643325
H        -0.15807903222255    3.72883094158667   -4.22217876118152
H         1.02702587120889    5.50451638346946   -3.08183124780618
H         1.01408154172097    1.17226971827149   -4.12046180418537
H        -0.08966224919798    1.23754069043882   -2.72383688219181
H         1.58359948511567   -1.21832437698401   -0.84013372705731
H         0.65527802151301   -1.35638653225613   -2.38158660528514
H        -0.39587486866830    0.50758586325127   -0.29437814995359
H        -0.79015476983475   -0.95537935973608   -0.77501140549289
H         2.19540799292795    1.67932038148341   -0.55157744261917
