35
 energy: -49.723733984588 gnorm: 0.109661528957 xtb: 6.4.1 (79825abcba525fcdf90b791dcacef51065a7a4e7)
C         3.53871719669739   -1.53620455905655   -2.58421745582557
C         3.00375043204203   -0.21368927071858   -3.11360228065002
N         4.12126996980339    0.77459135924277   -3.09534132835217
C         3.86555268960058    1.57221987695634   -2.09873418007392
C         4.34980420096502    2.97716866320488   -1.92910438252735
C         3.53156471796752    3.97627361365778   -2.75590280096065
N         3.94066177303537    5.15778024847970   -3.09696948071278
N         2.43025580790104    3.50317577520385   -3.44966571310481
C         1.21898250457271    2.99153503441061   -2.77963009384086
C        -0.01463131797549    3.70930094946070   -3.38596405160638
O        -0.19232146078897    4.95420313515588   -2.70987920133958
C         0.95395685536976    1.47660323900477   -2.92459419804656
C         1.90514658434799    0.46871535461673   -2.21794593152193
C         0.98565531331006   -0.56732324278372   -1.49999303314998
N         0.00184078846026    0.04971062923267   -0.59673219436475
N         2.78738495280748    1.22282145050045   -1.30551161593490
H         4.47658219286835   -1.67921204504791   -3.13397721200427
H         3.00192590150397   -2.46070445189626   -2.82148759927812
H         3.80992664772154   -1.54495746662451   -1.52652351258181
H         2.66197482550411   -0.28056500086014   -4.15544270884611
H         5.34775219261288    3.04554169046625   -2.36966320123277
H         4.43346316459590    3.46714988014339   -0.95704802195452
H         4.89232176427301    5.39938659280932   -2.79337896976217
H         2.12296443103803    4.12104839408539   -4.20445776593523
H         1.26744254786580    3.17420158220863   -1.69757443721218
H        -1.00520408714851    3.26873637698698   -3.23333365230996
H         0.11539658675234    3.92729234648301   -4.45343387540005
H         0.63123297664741    5.47025416473060   -2.80107506284284
H         0.89407914585370    1.18855089702897   -3.98266352881935
H        -0.05052212253198    1.32486109565352   -2.50695658343180
H         1.47966536004258   -1.30512482080042   -0.86829195410706
H         0.59423229034087   -1.04437311707016   -2.40712706197856
H         0.45505028597217    0.28240744054542    0.28352338327180
H        -0.75674457879952   -0.59190625360996   -0.36036151393871
H         2.33706858955946    1.92898437819042   -0.72689035122993
