35
 energy: -49.724591195872 gnorm: 0.110965857770 xtb: 6.4.1 (79825abcba525fcdf90b791dcacef51065a7a4e7)
C         3.67529201920097   -1.34156409848737   -2.71266799297823
C         3.03561708344357   -0.00299508781463   -3.05109584195631
N         3.96358578884749    1.14676368925690   -2.84418806471030
C         3.50898598320102    1.77092948221150   -1.79605425194452
C         3.88957534696391    3.19186384404664   -1.52540281457497
C         3.70175081725850    3.88020161526237   -2.88269247920159
N         4.50383034472937    4.62135639510266   -3.58054833799031
N         2.48639361685433    3.48582475976577   -3.41690554047829
C         1.27234158452808    2.95399202799234   -2.76795365830943
C         0.09122620250594    3.82310733400604   -3.27217272509560
O         0.26248889350741    5.10230270994203   -2.66162031782210
C         0.94977237317447    1.46526831324102   -3.02470707527682
C         1.78184235817406    0.43536129602702   -2.20806593910350
C         0.90336527930038   -0.77938119004945   -1.77565958668959
N        -0.04241229478965   -0.20404950858032   -0.80663935288898
N         2.46996316983257    1.15731448308008   -1.11956685069288
H         4.59730781695284   -1.45324844916765   -3.29549828856303
H         2.86739835795987   -2.04790877508308   -2.93067512961399
H         3.94316176113038   -1.38295221628516   -1.65489652070905
H         2.83691154708636   -0.05992877999438   -4.12997909540875
H         4.94234899068866    3.26124578899863   -1.23988409838808
H         3.24776115666233    3.61329720169146   -0.74923114856126
H         5.38583950537493    4.71098177387352   -3.06071692586381
H         2.34771925681344    3.92568969048748   -4.32970006882890
H         1.14933417462456    3.18689046450226   -1.70156378356785
H        -0.84814915822433    3.33705743040346   -2.98940600857540
H        -0.00846187930257    3.81689842514528   -4.36484974076689
H         1.17777786568998    5.42831263876926   -2.75559310344914
H         1.13680244222478    1.23324389211192   -4.08170973726721
H        -0.11091264679074    1.36330482607848   -2.75829461596923
H         1.50539254520238   -1.64361925306863   -1.49619744018978
H         0.25224352786981   -0.97385285347944   -2.63699688801751
H         0.46153273725837    0.18881703015663   -0.01537970786704
H        -0.67224206044676   -0.87731184867808   -0.36729054840678
H         1.91529474561281    1.59815470229112   -0.38863846235274
