35
 energy: -49.729609969475 gnorm: 0.110077847863 xtb: 6.4.1 (79825abcba525fcdf90b791dcacef51065a7a4e7)
C         3.81245684373064   -1.37491341569792   -2.52916825669604
C         3.13718683054436   -0.14805485006594   -3.12441016910606
N         3.94393708893403    1.10544206111552   -3.06291593864499
C         3.61239987437528    1.68004353056681   -1.94276207863882
C         4.12775970061750    3.06831160107027   -1.73235539724724
C         3.60151470091570    3.85474786226263   -2.93896486354169
N         4.24210254063627    4.77244029267971   -3.59251871092113
N         2.27110847245887    3.70688558817340   -3.29416320520589
C         1.17213779531733    2.92759565973454   -2.69176994605529
C        -0.05358282526013    3.81184216748567   -3.03868334759509
O         0.05071946059498    5.02322510503862   -2.29027278161270
C         1.07679132034153    1.43987982089730   -3.09659357662981
C         1.91159831000460    0.39548630648698   -2.30142617935446
C         0.94555419957478   -0.68326625227659   -1.72060926346905
N        -0.14848359480638    0.04654455712321   -1.06109468456186
N         2.64495074406808    1.03651879536240   -1.19199906296061
H         3.95437412666549   -1.16266653865812   -1.46282476781266
H         4.79725441497250   -1.60817399959935   -2.94738509898046
H         3.13397178324923   -2.20310601768270   -2.74388367262015
H         2.74875399288847   -0.27200241558373   -4.14444515355013
H         5.22057747880532    3.06128367265410   -1.71319670537260
H         3.86582538178003    3.56655466532209   -0.79687783845997
H         5.22298707901469    4.96769694170052   -3.35600672028579
H         1.99998144589262    4.21673949811586   -4.13822761080975
H         1.36232694665447    2.95665418393285   -1.61031556430235
H        -1.03422791591436    3.45998518498623   -2.70229152151025
H        -0.13637610369777    4.07538140649419   -4.10057395866308
H         0.97000968602028    5.34372761101460   -2.36134237085374
H         1.42436119872345    1.41433441353237   -4.13804104543159
H         0.02047323425891    1.14025173773101   -3.12557614627214
H         1.43085424853293   -1.38102569462859   -1.03865692655551
H         0.54979704261627   -1.18473021778160   -2.61256827827757
H         0.18254928250623    0.43996409580842   -0.18357839288502
H        -0.95311581366892   -0.51973030382006   -0.78742542846253
H         2.20933247282149    1.50531476122109   -0.40034222184282
