35
 energy: -49.724091646927 gnorm: 0.105669512572 xtb: 6.4.1 (79825abcba525fcdf90b791dcacef51065a7a4e7)
C         3.55072971995213   -1.34593857619014   -2.79266378303393
C         2.83760504208368   -0.02417199632870   -3.03734873404598
N         3.88085357037102    1.03869387887829   -3.12583957760254
C         3.80955781120905    1.80031026576914   -2.07242332298507
C         4.35898503057600    3.19129705606386   -2.05143745014746
C         3.55599278574890    3.87756130867156   -3.16299807475915
N         4.20917353994113    4.54692838194868   -4.06018669745971
N         2.25523485956072    3.46783871066894   -3.40417442565619
C         1.21751669345741    3.00926503482676   -2.46037458029417
C        -0.05021994701633    3.78729669321024   -2.89871505532948
O         0.06896111951897    5.18527320332970   -3.16310774698268
C         0.84442777303927    1.51225430512834   -2.53806013628145
C         1.90795562586716    0.56450102593540   -1.91306104170883
C         1.28143942888551   -0.54772240727016   -1.01599192276488
N        -0.14622493986235   -0.31343169214791   -0.74881357442516
N         2.89852732563992    1.33882020345644   -1.13926880589703
H         3.94231833225258   -1.30030154369745   -1.76950529113512
H         4.42614400377596   -1.41633099269410   -3.44675614403158
H         2.92636753586384   -2.21857479733176   -2.99521142662516
H         2.33704699361257   -0.05538346170376   -4.01468280658582
H         5.41229820474971    3.26284749642650   -2.33441983005157
H         4.10515777170373    3.58782036776933   -1.06639177291517
H         5.22537613521412    4.56346805066055   -3.90768657211269
H         1.84499711480704    3.64944139753203   -4.32321253337815
H         1.43947900652793    3.26920253166798   -1.41647558959077
H        -0.84785753269182    3.77631140457982   -2.14886093988017
H        -0.39896275698993    3.28915738231663   -3.81203592416631
H         1.02038060342673    5.36506747323858   -3.28697156522702
H         0.49530865021626    1.23941691863981   -3.54292121202509
H        -0.11735245383691    1.45866601162841   -2.01029886996290
H         1.70328198639278   -0.55514006097792   -0.01128441109243
H         1.41206036016797   -1.52091820511435   -1.50538829232478
H        -0.66293765099050   -0.76317362086319   -1.50056932592849
H        -0.42035116800366   -0.91411370388581    0.03030837738369
H         2.63948824193525    1.95201519346351   -0.36911030011814
