35
 energy: -49.720979051720 gnorm: 0.118989048333 xtb: 6.4.1 (79825abcba525fcdf90b791dcacef51065a7a4e7)
C         3.62820286450182   -1.48113579240313   -2.95801727108985
C         3.10495444307740   -0.06722524033914   -3.16429979769903
N         4.16505635876645    0.95867778533548   -2.94161411691972
C         3.77223511414349    1.62780552057184   -1.89624912231495
C         4.27323558333413    3.00007929472294   -1.57528469444482
C         3.63724263850130    3.84929026801137   -2.68238715975077
N         4.26487185705776    4.86138188023634   -3.19365707693597
N         2.42404664784996    3.50118392625449   -3.25246371469490
C         1.16252330973000    2.94927503528888   -2.72155657816069
C        -0.05983303504481    3.76087247017143   -3.22333977422102
O        -0.22819729786598    5.08670879459248   -2.72108738800264
C         0.98458638252790    1.44804730279938   -3.03924394968176
C         1.87807339433792    0.40929283732387   -2.30261527038838
C         0.96132706777283   -0.61083348583175   -1.55883101434088
N        -0.07584244215766    0.14522727766136   -0.83969715429472
N         2.67964972359458    1.07218338452029   -1.25494715963337
H         3.97454757841082   -1.80024160763774   -3.94821649482160
H         2.77072625604024   -2.07293111895121   -2.62089082538807
H         4.45124219382241   -1.35016873244235   -2.25246673332994
H         2.85442546667871    0.16279859991021   -4.20882777201403
H         5.35599271419846    3.10679357538870   -1.67976530783054
H         4.04301315303377    3.12631106354329   -0.51555021736526
H         5.18125816789599    5.12726827330836   -2.81190046123294
H         2.28868494819989    4.01723956195291   -4.12497124011089
H         1.17039383024881    3.03097520955655   -1.62619224886638
H        -1.00289654277898    3.27341470372159   -2.95567630100606
H         0.08959020470613    3.85599968832320   -4.30617994400307
H         0.59006045204411    5.49783620231122   -3.05916396432691
H         1.06499273984941    1.24091974393525   -4.11474531963914
H        -0.02747325168415    1.23803412672000   -2.66768689583904
H         1.45969767209899   -1.32004236559123   -0.89845773989029
H         0.48334134242299   -1.24109423333732   -2.31908212205472
H         0.28318453931722    0.51167524208266    0.03848964527807
H        -0.85403829806179   -0.44842770862689   -0.54818377068365
H         2.04561978980540    1.70579218273556   -0.77245422622328
