35
 energy: -49.718825095117 gnorm: 0.116526647555 xtb: 6.4.1 (79825abcba525fcdf90b791dcacef51065a7a4e7)
C         3.58783243316194   -1.47379975902674   -2.45411049684375
C         3.02733202025392   -0.20509880697797   -3.07998718907094
N         4.04136950447523    0.88872472756243   -3.04592746890560
C         3.77223514409922    1.57823776912248   -1.97496207421042
C         4.33465457808394    2.95623904180770   -1.82680071968553
C         3.66279084314786    3.91217808908852   -2.81982732696358
N         4.17301848710843    5.07773021899392   -3.06640549960425
N         2.45900232153349    3.60502702558347   -3.43184144375129
C         1.32855756554121    2.97097467400105   -2.72616497771868
C         0.03950492108999    3.78098654742386   -3.02087823113092
O         0.23530994450253    5.14353915122630   -2.64198938057541
C         1.03186840498532    1.50416222500784   -3.10919023690453
C         1.82219911662824    0.43704402229311   -2.29888917544818
C         0.91856199655546   -0.67553950327110   -1.68253341654882
N        -0.33659582554905   -0.06582870506593   -1.21634294279669
N         2.67042628230101    1.09998579753101   -1.28865364674995
H         4.56061647888406   -1.53468451985664   -2.95636733780276
H         3.01036966096495   -2.39868936766825   -2.55539246918820
H         3.77826156135131   -1.25375650187146   -1.40165366556762
H         2.74017896886125   -0.39005117289573   -4.12404186715594
H         5.41624444326729    3.00155495620283   -1.97772110949608
H         4.10783191271878    3.19698170913726   -0.78633522266311
H         5.15593302754293    5.21367575058371   -2.79883236605138
H         2.23839716135898    4.40957668141678   -4.02339771793472
H         1.48112291260991    3.03124981476295   -1.64004775428053
H        -0.59743567768726    3.23134579487349   -2.32028610726176
H        -0.34408324779125    3.68154091164533   -4.04405466513626
H        -0.46735478913035    5.69661340499902   -3.03344615169783
H         1.16537119199995    1.43650408202848   -4.19715604243562
H        -0.00431774151922    1.35446276733233   -2.77702577522144
H         1.47522404100497   -1.22737317601360   -0.92553253954447
H         0.73534329809527   -1.47877921676983   -2.40704537488983
H        -0.12615420695698    0.68630584253207   -0.56487960171167
H        -1.09424402749294   -0.72634867379158   -1.03557332182333
H         2.16535891929398    1.57067161322496   -0.54057925497441
