35
 energy: -49.714596144937 gnorm: 0.112347170882 xtb: 6.4.1 (79825abcba525fcdf90b791dcacef51065a7a4e7)
C         3.59012030492491   -1.54601185242120   -2.43637038568439
C         2.99841978798481   -0.33203818125034   -3.13754290820176
N         4.09506597518683    0.65801222568523   -3.34502631056451
C         3.92563875285525    1.53592452212301   -2.39877430779454
C         4.59714819650583    2.85759729212661   -2.20025198918797
C         3.64676837590828    3.96059842309883   -2.68138490955595
N         3.94752293898374    5.20097716522904   -2.90644509522319
N         2.28583664462110    3.79128686646513   -2.87427933686404
C         1.12565784516467    2.92501711272935   -2.58885185861320
C        -0.05783467116579    3.59854683383826   -3.33069755805504
O        -0.13419310258834    4.96447479543823   -2.92221724778679
C         1.15660601613109    1.46103071432511   -3.08084536409778
C         1.95763644576155    0.42905480248407   -2.23625805414710
C         0.93520231659963   -0.45144881948249   -1.45290727917889
N        -0.22473972912253    0.23321571863176   -0.86107038471387
N         2.97697143187144    1.16526746189322   -1.46262758958509
H         4.22664011482590   -2.10381359997586   -3.13349120218373
H         2.73067425076823   -2.19354686421473   -2.23340984951789
H         4.06573232259935   -1.13650670266682   -1.54281209574220
H         2.47218077974450   -0.52118361274878   -4.08306443367259
H         5.54014896012321    2.76739389161341   -2.74548592618528
H         4.72016381904126    2.99685328807208   -1.12440398058263
H         4.93986973840811    5.43584198327203   -2.77883665895270
H         1.89398528239164    4.64463601766604   -3.27943775741854
H         0.98872015324839    3.00454376238043   -1.50189119635068
H        -0.98736589644827    3.11517525323681   -3.01296934267688
H         0.06393297637531    3.64436212000504   -4.42018961216935
H        -0.81240252942019    5.23796102851041   -2.27560723028403
H         1.62113819364191    1.55478537473944   -4.07154721334896
H         0.13284528242674    1.07854419066462   -2.97110514933409
H         1.38372698333740   -1.01136251760901   -0.63268435469267
H         0.62026669909266   -1.20952821384606   -2.18078907792130
H         0.10273938419918    0.96856821173510   -0.23945098141934
H        -0.71450160709369   -0.47578674701055   -0.31294275758684
H         2.57855744506354    1.91070273053923   -0.89531281091848
