35
 energy: -49.724696159745 gnorm: 0.110726205384 xtb: 6.4.1 (79825abcba525fcdf90b791dcacef51065a7a4e7)
C         3.42646127982452   -1.31639362631143   -2.79851940003588
C         2.90481802751983    0.06380972346960   -3.17055631103462
N         4.05837733215188    1.00410779879688   -3.06556844738747
C         3.84723508892965    1.71699330663206   -1.99690497822251
C         4.34390456172640    3.09988350331991   -1.71746077897718
C         3.85802468930700    3.81037931544479   -2.98649137076525
N         4.53813829385555    4.55032236527017   -3.80476673525504
N         2.62669264813265    3.37730989245365   -3.44939755447350
C         1.38869959163094    3.15623502828125   -2.67712423816182
C         0.29285995642598    4.15359764240900   -3.13432783319430
O        -0.83857859701998    4.05050350238430   -2.26965196853261
C         0.92578055211368    1.69036248766309   -2.82942389663459
C         1.83284582454516    0.61770064497521   -2.16115686583177
C         0.93048774888334   -0.52588826040396   -1.60236276416388
N        -0.06027594293307    0.08960096144808   -0.70566756039098
N         2.79927728992467    1.23644135584174   -1.23232584694305
H         3.29469131970609   -1.35729750829082   -1.71075047574654
H         4.49902656068144   -1.45728806055908   -2.96850337411379
H         2.87275085114992   -2.08075173605502   -3.34761784752344
H         2.53534391202889    0.14044465584447   -4.20222019742063
H         5.39496910155185    3.23147159529641   -1.44798902207471
H         3.79658854052191    3.45617890772596   -0.84254777849550
H         5.44539841957518    4.87610909654980   -3.44848084985230
H         2.42537551489350    3.73588734271775   -4.38577313369484
H         1.64007930055639    3.42987610478695   -1.64344697447738
H        -0.02865654182465    3.90558413139130   -4.15105986714961
H         0.61024322626965    5.19827517338991   -3.02553425902812
H        -1.48206541339732    3.37923228900589   -2.56661481816902
H         0.72041324258810    1.46652206718390   -3.88478636097995
H        -0.00688220092140    1.59607629740610   -2.25699470954591
H         1.49289081623882   -1.40677837614017   -1.29385224791312
H         0.46771707767731   -0.93428991321586   -2.50940857548314
H         0.43250027486339    0.32555012287066    0.15217632425761
H        -0.74810215221585   -0.60165719513905   -0.40226625873527
H         2.40972266557197    1.75087350471552   -0.44501382056718
