35
 energy: -49.725163959255 gnorm: 0.103229110122 xtb: 6.4.1 (79825abcba525fcdf90b791dcacef51065a7a4e7)
C         3.66755425846279   -1.36577034688067   -2.56686651240955
C         3.03918909299034   -0.09895530093468   -3.12884634238502
N         3.99424684274288    1.03507646283855   -2.96235706933460
C         3.71894992377414    1.61974216724600   -1.83222165308842
C         4.13773083781625    3.03333129993821   -1.58014376367796
C         3.77826882932911    3.83074478366746   -2.83960435828240
N         4.46834727601606    4.57077681900046   -3.64941243424786
N         2.43594424423238    3.72169062170988   -3.16253118383312
C         1.24653614651512    3.01177879590673   -2.65337449120948
C        -0.03333972379733    3.72425517403845   -3.16222317998890
O        -0.46803114389094    4.92084250526431   -2.51595073327773
C         1.19723795888926    1.55315586006342   -3.15959615054012
C         1.84175358180115    0.45174663679214   -2.26996192853886
C         0.84031012924180   -0.62294731935188   -1.74418583859629
N         0.08699000269153    0.13118989322844   -0.73014055077584
N         2.65274670941766    1.02782327179162   -1.17909859261153
H         4.70959722255116   -1.39760053925792   -2.90658843991309
H         3.10933936169548   -2.24342009515940   -2.90931232590751
H         3.71875734200615   -1.19406379620373   -1.48972084922119
H         2.74928542386374   -0.19953153724804   -4.18362343575739
H         5.22577006058102    3.07798656966183   -1.48610281084973
H         3.60447997930398    3.38291016039103   -0.69390895020758
H         5.48579895574078    4.52053058018065   -3.51352661794301
H         2.29203046582087    4.07516186138699   -4.11134755594954
H         1.18220609170246    3.00690995214411   -1.55683547414966
H        -0.91748572531492    3.10771538835995   -2.97041042791752
H         0.16096009250697    3.95210207500036   -4.21780486739264
H         0.11059011716904    5.66064627906381   -2.78194898750146
H         1.80511304886565    1.54618286001253   -4.07420507104149
H         0.18007789988848    1.23318114842708   -3.42308518750142
H         1.31941682231725   -1.46866129186746   -1.25157238217497
H         0.27892780392909   -0.99164598997911   -2.61170638118404
H        -0.57430835661298   -0.51026987609025   -0.29931531220816
H        -0.47120359269234    0.78576320785016   -1.28054837736625
H         2.30510613680508    1.40860744028522   -0.30137259111164
