35
 energy: -49.722384882023 gnorm: 0.124653216525 xtb: 6.4.1 (79825abcba525fcdf90b791dcacef51065a7a4e7)
C         3.77278418270621   -1.27984954495959   -2.61369112734976
C         3.04795963658126   -0.00888310335880   -3.03173195903425
N         4.03210584659411    1.07029203269463   -2.72723355665838
C         3.56861517366218    1.76952142855760   -1.73170199807562
C         4.08523748895091    3.16618663788696   -1.59176406684141
C         3.62516886806036    3.79927235611518   -2.91042306556071
N         4.28553724234118    4.68163097663074   -3.59233339443623
N         2.33328209603477    3.55957693484686   -3.34812677253196
C         1.16588140221464    2.93390924940476   -2.69726383937042
C         0.06750895132441    3.96811908674487   -3.05589988816577
O         0.42890032813760    5.32887339591113   -2.81885571161046
C         0.87054688367155    1.45262124076169   -3.02104601885861
C         1.76346813429759    0.44322618766404   -2.24402287246133
C         0.96670177120762   -0.78471036228058   -1.70399346384161
N        -0.23682750318418   -0.30759103799372   -1.00515412823274
N         2.47731452674070    1.14266024663871   -1.15738941231390
H         4.74633382110047   -1.27839979584977   -3.11814795089677
H         3.31398112699781   -2.13669831102522   -3.11812351229412
H         3.98968332125446   -1.39081944984336   -1.54927198506871
H         2.97282448890892   -0.03725894641179   -4.12729754148164
H         5.17213058524358    3.27974342236434   -1.57089781082130
H         3.66034394274610    3.63230494976342   -0.70060010896070
H         5.28017290394863    4.78372869775159   -3.35469181433732
H         2.22321021924780    3.68819004322873   -4.35671412778013
H         1.32719498878830    3.09516069155397   -1.62277056465855
H        -0.89388056489692    3.73649671458206   -2.58610326302038
H        -0.14624874104069    3.75055604475493   -4.10988912365087
H         1.27093560133830    5.37755763270763   -3.31025545333123
H         0.90020273966306    1.27578178161526   -4.10452123454275
H        -0.14133605500736    1.19183175092855   -2.68265772211873
H         1.55786822018628   -1.52801546294436   -1.16970598150474
H         0.60266342961957   -1.33426218669476   -2.58100520391888
H        -0.04728847833627   -0.12673857764985   -0.02242126266235
H        -0.87618570927418   -1.09304505238022   -0.87370770255218
H         1.89183095518535    1.45699564076309   -0.38625017211045
