35
 energy: -49.721039338022 gnorm: 0.119277832421 xtb: 6.4.1 (79825abcba525fcdf90b791dcacef51065a7a4e7)
C         3.51027157413108   -1.34542117023186   -3.05495578741886
C         3.04007904486530    0.08091641535979   -3.29983238153750
N         4.13183594383381    1.05029232409196   -2.99281570318069
C         3.70042487311157    1.60480028549040   -1.89680755973719
C         4.25228833936687    2.95664755954882   -1.57259988034901
C         3.64413609872154    3.95099870498125   -2.56896268837200
N         4.25591507180364    4.99269775661111   -3.03825405016334
N         2.36813543171851    3.68435966289495   -3.03665463797431
C         1.16259586844221    3.01157945492546   -2.51516818261052
C        -0.10208536997375    3.74336568991764   -3.03449670940866
O         0.07399614005241    5.16019843189588   -3.03961977966706
C         0.96528085532300    1.54586480760847   -2.96128354025422
C         1.83807428629967    0.41677846401125   -2.34213300282838
C         0.88632742884566   -0.71783415509197   -1.85108440911450
N         0.08673431180753   -0.20302358214923   -0.72853244565665
N         2.59060255047762    1.08017531513989   -1.25900660034822
H         3.87133167332131   -1.52450204379784   -2.03522870079537
H         4.36072293440526   -1.37622543908720   -3.74410429877509
H         2.90355980014871   -2.19623198852310   -3.37176715752654
H         2.79190853923296    0.10935996058064   -4.36955982123198
H         5.34480102297177    2.94030095364261   -1.60116502770833
H         4.03702610220028    3.16435009163768   -0.52260186447592
H         5.18169995558459    5.17546288924307   -2.63117074321693
H         2.35676426782507    4.02304646734975   -4.00157305119689
H         1.10804417913510    3.08941303866936   -1.42085290067630
H        -0.94715026759741    3.55077946673563   -2.36561445938594
H        -0.41345850241433    3.44954513704933   -4.04476181638471
H         0.95123602632870    5.25507002802761   -3.45713244394759
H         1.02011921924330    1.43354791326518   -4.05236002213771
H        -0.05838935384640    1.28089068646148   -2.66410866620552
H         1.43619536677857   -1.63668498584646   -1.64908993022069
H         0.25158325835186   -0.94883761619490   -2.71561778586576
H         0.63658423673371    0.15197801572075    0.04995035163407
H        -0.39678344386841   -0.96221003104854   -0.24599581135551
H         2.10184922329082    1.68247628308553   -0.59975913204549
