35
 energy: -49.713643102518 gnorm: 0.120207947176 xtb: 6.4.1 (79825abcba525fcdf90b791dcacef51065a7a4e7)
C         3.55446492363219   -1.51175795169807   -2.29535474456877
C         2.95089847962577   -0.25275388585880   -2.90041736107413
N         3.92683706182819    0.81515613083498   -3.26510092632036
C         3.78198443144572    1.64559518069443   -2.27302374401058
C         4.39431474816423    3.00975302057155   -2.23724768640907
C         3.74670859187059    3.85032454895888   -3.34421108810810
N         4.34970106069115    4.80366876439291   -3.98231742498926
N         2.39387986946084    3.66269079420947   -3.57368412245432
C         1.32748707680489    3.06812982956835   -2.74470242326592
C        -0.00535631540764    3.74995916619736   -3.14876811729417
O        -0.65915367862424    4.48944749571012   -2.11719069671502
C         1.17854050029893    1.54218250379166   -2.93330578441128
C         1.89841437829012    0.51228398374099   -2.01622217241142
C         0.91381096901777   -0.40145285327801   -1.22253603249608
N        -0.30512119935446    0.21221329569812   -0.67288141483499
N         2.90586200130151    1.28652861988759   -1.26445658965021
H         3.88477121050379   -1.27453712873738   -1.27707102965926
H         4.46036834674574   -1.70436579381921   -2.87963489376336
H         2.96162150530271   -2.42663740195237   -2.23306557790175
H         2.48477002481684   -0.42080554418455   -3.88082408264772
H         5.44414403644991    2.97291274600678   -2.53918876369300
H         4.28742267172225    3.37973771343457   -1.21565118376073
H         5.26812129014240    5.18143152752933   -3.71774771337030
H         2.10116470926338    4.27264693221913   -4.34061107236755
H         1.56696408957978    3.24934675369060   -1.68811779434590
H        -0.73083191356780    3.04335933609937   -3.56473618098142
H         0.24138177751071    4.44028146701772   -3.96515942535518
H         0.05236670877869    5.12121059835271   -1.89928846386015
H         1.37578449558017    1.25050186678561   -3.97354009818207
H         0.11540946595246    1.34547141084937   -2.73970299490521
H         1.57773453981006   -0.88270441050769   -0.50486911940079
H         0.54532997398310   -1.15098237745387   -1.93394868485673
H        -0.81819706156814   -0.50782454550344   -0.17019343433874
H        -0.02901916285184    0.97786119408023   -0.05599727137842
H         2.71443583414462    1.96848009958470   -0.53332617031225
