35
 energy: -49.721514366491 gnorm: 0.111048172987 xtb: 6.4.1 (79825abcba525fcdf90b791dcacef51065a7a4e7)
C         3.53019719133446   -1.25942985200417   -3.01139091376876
C         2.88765894004023    0.09779304020397   -3.25751090670762
N         3.89601412914256    1.18305468713691   -3.08056750554891
C         3.71487581168802    1.65070131996708   -1.87918332158395
C         4.11241508833887    3.04696403150894   -1.51922789742494
C         3.57380773077648    3.86888984889326   -2.69636947003841
N         4.17737109379999    4.83331194690277   -3.31705143844886
N         2.40987849316659    3.39947799849243   -3.28197267347096
C         1.15685382731777    3.05342501270808   -2.58334294458496
C         0.02109012616966    3.82805679827246   -3.30071191398600
O         0.31937187409084    5.16324105693181   -3.70907075827243
C         0.82852181562178    1.54524937448024   -2.64559918772366
C         1.81939820413344    0.44979930587518   -2.15763937597497
C         1.03444243269852   -0.79734625892528   -1.64502948084862
N         0.22515298626656   -0.34901133585159   -0.50111149340489
N         2.70535207508876    1.05568907876220   -1.14396278073411
H         4.44280832036322   -1.52231574325542   -3.55939603232188
H         2.80706337185425   -2.06119604610437   -3.19412166343590
H         3.90729949892201   -1.25726980423295   -1.98662906365347
H         2.53491431244203    0.26561816747506   -4.28421454668771
H         5.16875931318390    3.32660354351638   -1.54384022155019
H         3.65555487602981    3.31713802822365   -0.56515307654088
H         5.12653724537147    4.97754359159121   -2.95033844543623
H         2.19167820089993    3.85462285581890   -4.17143171992627
H         1.21238994591458    3.29492159424502   -1.51322378156118
H        -0.77741835073332    3.99487882008468   -2.57051863963951
H        -0.23381859747201    3.21363785869760   -4.17331161681382
H         0.94528279229476    5.54246599391353   -3.06308993046676
H         0.46190893832070    1.26259896104015   -3.64147766288961
H        -0.04614377078403    1.37898311124530   -2.00237254702463
H         1.68405453583044   -1.57433398102873   -1.24286341772905
H         0.43411875018367   -1.21732401473559   -2.46167558468283
H         0.85916925580915   -0.31110636232752    0.29323296708695
H        -0.61657810098767   -0.91697424073906   -0.39201520513687
H         2.42034776624454    1.44719138785854   -0.24855675307875
