37
 energy: -56.181033566766 gnorm: 0.110435643526 xtb: 6.4.1 (79825abcba525fcdf90b791dcacef51065a7a4e7)
C         3.38757973180680    2.94185351256392    1.67279198830196
C         3.51148532084871    1.64638176168922    0.89215788341366
O         3.83270731418295    0.51241932576101    1.70052934450252
C         4.57827096897602   -0.56583488137368    1.10716834177787
C         5.74840878292423   -0.21492972396999    0.17839539168580
C         4.99388433574685   -1.56944805518924    2.20561420323959
O         5.22210122986161   -2.86687706088138    1.62031307099598
C         4.41457941945703   -3.77209878391918    2.39917956377226
O         4.39375461367514   -3.14813216196988    3.69731128089829
C         3.88298568190405   -1.88338143253514    3.22216546043007
C         2.59831555712421   -2.32270194082083    2.47686392843089
C         1.34258493199955   -2.11542583156603    3.32782991080989
O         0.21877121453848   -2.39782670793994    2.50433950614560
C         2.94174642223008   -3.75731450710150    1.97849359445349
C         2.14705850124725   -4.86697433919770    2.65813253735157
C         6.27295772784862   -1.17545977123908    2.96273290523463
O         6.40032749365258   -0.56686821436498    4.02328302086665
H         3.17091272984518    3.74679407752190    0.96350786701487
H         4.32791497805172    3.23062225086788    2.15431083416393
H         2.61913936329542    2.92154159455947    2.45142241674727
H         4.21502976730487    1.84103601854797    0.07861054979056
H         2.51994890409926    1.46923580878730    0.46281081361851
H         3.85681886259011   -1.12166926572326    0.49691409570059
H         5.28519736840528    0.27878138217096   -0.68162152307369
H         6.10426182834859   -1.23602993108660    0.00762355204829
H         6.49693693003704    0.43621051423377    0.63842116131178
H         4.84871537763361   -4.77385852437855    2.45550189766234
H         3.75884488458849   -1.17165443198742    4.04018303255597
H         2.43058353303355   -1.60420390273765    1.66800667227625
H         1.24130939194476   -1.05294939865191    3.57701676831886
H         1.46661426447018   -2.73401398001215    4.22139361876892
H        -0.55435694218550   -2.05895468390661    2.98636072729249
H         3.04186606361286   -3.86803353866014    0.89152499680161
H         1.08649865125774   -4.59870674658187    2.63937900412105
H         2.46135090325815   -4.91476753252061    3.70748941158318
H         2.23117012833102   -5.88981917006273    2.27883672703516
H         7.17017435348678   -1.54544848380764    2.44174276553569
