37
 energy: -56.174164632319 gnorm: 0.131125422540 xtb: 6.4.1 (79825abcba525fcdf90b791dcacef51065a7a4e7)
C         3.69380007979044    2.91695054363824    1.75771709271089
C         3.53089029685182    1.41811098869190    1.93071905775243
O         4.61150885912574    0.82132373550814    1.21056118631230
C         4.45880153928091   -0.56861578693265    0.87096823480068
C         5.33224059948384   -0.80000873295232   -0.36940987380530
C         4.89283509969330   -1.46633221154216    2.05091640898615
O         5.13229488834183   -2.83730341642988    1.67531076714158
C         4.44272345255272   -3.66543131627983    2.63283170517429
O         4.50318586748318   -2.84705706890027    3.81669060777598
C         3.86440409716719   -1.72776557457122    3.16447334643770
C         2.57599331277500   -2.29255626900477    2.51650456357374
C         1.25508975570948   -2.19360946325823    3.28422154709385
O         0.03250160657149   -2.51796344699570    2.63544058286270
C         3.00845783366755   -3.72881697587415    2.09869991137673
C         2.23417436275259   -4.87635485560478    2.73778123024528
C         6.12493485582350   -0.82849588020771    2.71392442504687
O         6.19902247784220    0.00547838147653    3.61413073965412
H         3.79342566270275    3.12324786749393    0.68744888718822
H         4.56730341501905    3.28866050970294    2.30388720402701
H         2.79833816036624    3.43996792180824    2.10668600080587
H         2.69287757822270    0.99922428614019    1.36769777329644
H         3.56822770359638    1.27204320411289    3.01521626946953
H         3.42443779967880   -0.75664831407713    0.56017762375219
H         5.24038511497394    0.07164879634107   -1.02494044242513
H         5.03811805713229   -1.72658532570610   -0.87278630632824
H         6.39990261570327   -0.86443000917628   -0.14170507503342
H         4.93183402258564   -4.62109092191164    2.83936118747521
H         3.68600490224778   -0.92144261770343    3.87801112937455
H         2.36406566884828   -1.69974288216233    1.62080229145465
H         1.18721176070663   -1.22618948651642    3.79480768491625
H         1.46182740529484   -2.81580290869630    4.15979311490632
H        -0.10842989533344   -3.47571736518685    2.54739738160272
H         3.02410821534265   -3.90942840107324    1.01661025958961
H         1.20022504137333   -4.80864413257394    2.38639758147926
H         2.25196587871007   -4.83497496581741    3.83331075438905
H         2.76686100352610   -5.80338713917012    2.50538559011600
H         7.06451969334585   -1.27028805841726    2.34606551382957
