37
 energy: -56.180820731286 gnorm: 0.114855870313 xtb: 6.4.1 (79825abcba525fcdf90b791dcacef51065a7a4e7)
C         2.87878394962481    2.37342704870093    1.82482875403671
C         4.06967395422100    1.43322055364298    1.79686436167186
O         3.57513723635967    0.24833077524515    1.16917937355174
C         4.54570096539212   -0.74778603248260    0.79994783426878
C         5.72741483388954   -0.29921896988341   -0.07029123489717
C         4.99004375098557   -1.58897862149094    2.01712148726955
O         5.22553446287748   -2.95518128706057    1.62213186532670
C         4.34156661522740   -3.69080084255460    2.49139337699985
O         4.29422875316865   -2.99676990647350    3.75273954721448
C         3.95063745203497   -1.73391336900997    3.14169025419665
C         2.57406510864137   -2.14663366688945    2.56413960806420
C         1.52601659670262   -2.13385695284009    3.68011315895658
O         0.19307698119363   -2.16556807524943    3.18705093536351
C         2.87429819706010   -3.58999718126977    2.06314775723222
C         2.07230919849411   -4.76155127061623    2.61907724421476
C         6.30290467647569   -1.08558972637175    2.63960046801022
O         6.50720123350577    0.11387327472953    2.81545477210968
H         3.04390074876870    3.33860952561719    2.31382476322941
H         2.04741450988488    1.89228950935027    2.35095581392348
H         2.48913842555824    2.58673355204077    0.82490114613873
H         4.46289528457204    1.26016270374420    2.80192769275715
H         4.95202751753317    1.79132170356863    1.25642027074245
H         3.94404144641034   -1.41343762651759    0.17005179177145
H         5.43623359305999    0.26180375285833   -0.96383001114662
H         6.21750741298377   -1.16936299194015   -0.51873150567362
H         6.43892811051300    0.33021580523755    0.47143048407717
H         4.79338677661460   -4.68629734744634    2.48764265027834
H         3.98809417859372   -0.87587981446264    3.81511020290022
H         2.23747381905797   -1.63184449838035    1.65842335414840
H         1.62554347837412   -1.20374029996680    4.25123872125991
H         1.66259330764349   -2.98237979682860    4.35675668145117
H         0.09879075366639   -1.45613927660091    2.52923124940065
H         2.65062123542648   -3.56715368356971    0.98926220692255
H         1.35799881110739   -5.07155463545205    1.85046487277167
H         1.55248966850421   -4.52450395679724    3.55492444315354
H         2.86350077577005   -5.49510494993641    2.80091925868334
H         6.90547992674702   -1.92751392318309    3.01561478456449
