37
 energy: -56.184640151644 gnorm: 0.128818584955 xtb: 6.4.1 (79825abcba525fcdf90b791dcacef51065a7a4e7)
C         2.61752914510010    2.04376623292481    2.22431339522540
C         3.94853242555826    1.47164105840276    1.77254762267325
O         3.63641057013664    0.36598910757927    0.92246968513361
C         4.57078301204612   -0.69251163677666    0.64480282166260
C         5.86776422264145   -0.23481049499665   -0.03587738532304
C         4.96598927547725   -1.60908524992732    1.82389654958466
O         5.05127191641578   -2.96887620439973    1.35306978210771
C         4.37627278794563   -3.64338490194693    2.43360902790387
O         4.55914511530948   -2.88867104747681    3.64681910277895
C         4.02318741297646   -1.69442158220835    3.03627801388701
C         2.61277281779507   -2.05486647714349    2.50744498583156
C         1.58192462756315   -1.75773232104845    3.59970374848011
O         0.29463762413951   -2.22693082504434    3.22077247569124
C         2.86626052993553   -3.55813543569111    2.19065263158211
C         1.94290487857131   -4.56194679225081    2.87223904111421
C         6.35869553285615   -1.31822781211622    2.40721080344807
O         6.52904606545358   -0.40935849207671    3.21734077670398
H         2.69064160993225    2.98425668883846    2.77937207454460
H         2.19216629051068    1.28739610093163    2.89248165668792
H         2.04100529346695    2.12977815242113    1.29835404487480
H         4.57684921743627    1.24428929689109    2.63756410524947
H         4.42116198804095    2.27239100801108    1.19437388326166
H         4.01651007744276   -1.39304009163940    0.00927418113362
H         5.51954034577246    0.20108760056803   -0.97751295613105
H         6.44800401798013   -1.13598076584986   -0.25870907889545
H         6.46073552225102    0.40320117457536    0.62535469034053
H         4.79741902680515   -4.64500507101876    2.55428089494626
H         4.08869565443348   -0.99170278900060    3.86875262589001
H         2.43942280181011   -1.45911724147733    1.60541608201145
H         1.47049405054003   -0.67858380522475    3.75535947283585
H         1.77143597871347   -2.15640817064278    4.60052025873214
H         0.03537538842225   -1.96717877643926    2.32065147320081
H         2.70146507337952   -3.73726333609933    1.12082131789138
H         2.09213116629454   -4.64476041894942    3.95297018704130
H         2.20316268013745   -5.55961390112197    2.49922433557171
H         0.90711752505035   -4.35560002908718    2.58637683624954
H         7.15615664755687   -1.93871068169638    1.96860296520485
