37
 energy: -56.169514166609 gnorm: 0.136968878726 xtb: 6.4.1 (79825abcba525fcdf90b791dcacef51065a7a4e7)
C         3.74702963681834    2.76013560102180    0.67965836383616
C         3.20450505334302    1.69485672068372    1.61445098530501
O         4.26395939737209    0.83626768578140    2.04211927035419
C         4.55585421352718   -0.29356256573265    1.20018363819957
C         5.73961377822377   -0.11323810646171    0.24040631713771
C         4.88439208013250   -1.42842811083244    2.19552289025903
O         5.12989368964627   -2.67750512527836    1.51912217211994
C         4.42441737051532   -3.64706321687985    2.31937907954301
O         4.41452951747812   -3.06493053381137    3.63692897841377
C         3.77467183409136   -1.85684396955422    3.17071888516918
C         2.42397659152588   -2.28355146343671    2.54430269769190
C         1.29408421256918   -2.29230379302967    3.57737213797820
O         0.05813435512411   -2.72818304282706    3.02666242581871
C         2.93889174375219   -3.62581661249179    1.94629132734590
C         2.12389932097286   -4.74231090996343    2.58972800302101
C         6.03444322326255   -1.04488996456997    3.14144312261985
O         7.06609813423065   -1.69830267132501    3.28326437195907
H         2.94062397072703    3.43223423195594    0.36989845608505
H         4.15786602232435    2.26297222569765   -0.20550840145932
H         4.52180745906749    3.36272419532886    1.16317137448638
H         2.37312188401399    1.15561293314812    1.15321081179534
H         2.80269249921778    2.01769900170089    2.58046526863445
H         3.66453241951892   -0.58464446286440    0.63214136616644
H         6.44544952783279    0.67381038177753    0.52377026310195
H         5.34603032279275    0.17987505315387   -0.73817263890775
H         6.26910661174195   -1.06922773258959    0.20012128121977
H         4.79162271615569   -4.67212653843327    2.22153110611702
H         3.63882048056238   -1.26250493236178    4.07593958120470
H         2.07715432702718   -1.66501815848422    1.71018378155132
H         1.41292734603671   -1.23274510281940    3.83118050347352
H         1.65309874833498   -2.79405023116721    4.48061614515323
H        -0.05630631474122   -2.38173771718691    2.12567140495233
H         2.73019263590235   -3.72164662469344    0.87342383338775
H         2.26900462711803   -4.74892582120216    3.67416660553571
H         2.45547315944744   -5.76919222597932    2.39533844332386
H         1.04411966684320   -4.60835605476835    2.47447341498714
H         5.80595317832444   -0.10834615742852    3.67435777897890
