37
 energy: -56.172189673107 gnorm: 0.128895988458 xtb: 6.4.1 (79825abcba525fcdf90b791dcacef51065a7a4e7)
C         3.62742907244300    2.43234058167201    0.28651533505742
C         3.11800883685564    1.48936748106545    1.36089050966785
O         4.06707778447946    0.80315741126597    2.17997699866853
C         4.62157801714381   -0.31475089477188    1.46346803547710
C         5.73477937245248    0.19204976189421    0.53669300519229
C         4.95322586125045   -1.49228112521762    2.40686054897267
O         5.09263236296789   -2.74347763046409    1.70468143093784
C         4.28801814999642   -3.66382413390571    2.46869003234461
O         4.24872336663379   -3.09338555922149    3.79079809230657
C         3.83341921775654   -1.75863067525070    3.42721217003099
C         2.54030184406342   -2.16287562659790    2.67668723035201
C         1.42949958183600   -2.32793552468228    3.71728295133973
O         0.12121203716184   -2.55914418054081    3.21154564259899
C         2.88752137589669   -3.45706766595017    1.88363204520940
C         1.98166909111991   -4.66515104848300    2.09517189101905
C         6.28920754233884   -1.21817424357815    3.11714402434497
O         7.36234802769778   -1.74985970786363    2.83955914971788
H         2.79100055519506    3.06879342494016   -0.01889092320868
H         3.99084761499441    1.94561328506745   -0.62480330322014
H         4.40525988368787    3.09558001927233    0.67673475598110
H         2.40874998283420    0.77842087252880    0.92934545617591
H         2.55861797867699    2.17357053621964    2.00727438181083
H         3.88778036909324   -0.68885854110348    0.73997669222290
H         5.88964915867947    1.25101228853553    0.76594892588067
H         5.45757793702458    0.00470767107151   -0.50566122368852
H         6.66250309800759   -0.34170689811530    0.76104590200253
H         4.70918803411983   -4.66503671487210    2.34476218944048
H         3.76777990243385   -1.00404617979483    4.21296831851837
H         2.19961468588081   -1.36530697410093    2.00852555664568
H         1.28740202499417   -1.58015933107582    4.50585510287364
H         1.70672503465852   -3.24408129471466    4.24672950270827
H         0.01784131572730   -1.90283301949333    2.50198521074752
H         2.93391321791640   -3.29151701863093    0.80001580345640
H         2.16427036303345   -5.08690537465667    3.08809004223908
H         2.19310381063154   -5.36806210563287    1.28066273916451
H         0.92017755699873   -4.44321912143182    1.94979799438957
H         6.07670563977416   -0.60738828148981    4.00882978586157
