37
 energy: -56.179651478069 gnorm: 0.125432358822 xtb: 6.4.1 (79825abcba525fcdf90b791dcacef51065a7a4e7)
C         3.23351156191736    2.58688983226226    1.83037187024005
C         3.18209047403398    1.09625267819280    1.55046828763503
O         4.44935026296441    0.75362957250871    0.98550736446480
C         4.64184225605321   -0.66061845117835    0.80268514009062
C         5.83758887179339   -0.71173047606909   -0.15781148195161
C         4.98624427108954   -1.50865289777914    2.04718586339697
O         5.25700572642361   -2.87581872354489    1.67904423324695
C         4.43192916917863   -3.68416825304729    2.54158152553532
O         4.39332262979020   -2.90358187326050    3.75158500338300
C         3.91020010641497   -1.69212927216911    3.13092560761328
C         2.53324194242053   -2.18142605663331    2.61767218027064
C         1.41639887420165   -2.08602626011752    3.66051748381020
O         0.10140906772779   -2.02057267028098    3.12445628728519
C         2.97797309880076   -3.57066544727973    2.07300798528558
C         2.17278807879535   -4.79245049495179    2.50161189995459
C         6.27016764226010   -1.00880623699231    2.72995844558473
O         6.18359379658046   -0.11284008502872    3.56728929478051
H         3.51896617914123    3.05728271227688    0.88421962542960
H         3.91519945314674    2.83033927038068    2.65226733267021
H         2.18125994593952    2.79910698468923    2.04228916237577
H         2.41574962304884    0.82588812714370    0.81947646222134
H         2.98224276364649    0.50756702769931    2.45178630113049
H         3.71201571502184   -0.93812932603377    0.29252284328186
H         5.43391441965420   -0.45449247446412   -1.14209808563611
H         6.37582548591949   -1.66490365299465   -0.14358882487983
H         6.58382078029818    0.01756067066076    0.16956304380758
H         4.93867903365424   -4.65216394511417    2.57842897227400
H         3.80040060917321   -0.88568509177400    3.85805068022222
H         2.21705249460195   -1.50466155379491    1.81727380219691
H         1.47211514951259   -1.15223054300303    4.23159387923856
H         1.33281348276567   -2.91347370497401    4.37103481471861
H         0.03988751145342   -1.46647615547166    2.32815357962865
H         3.02163424438093   -3.57357864136612    0.97671030550367
H         1.22712739516425   -4.92276811997563    1.96696287396437
H         2.10065087256136   -4.78924730145733    3.59568672259217
H         2.80125700064383   -5.64289712865529    2.22068669911173
H         7.11853723889648   -1.67904443313842    2.51931691921511
