37
 energy: -56.172131576244 gnorm: 0.132568315024 xtb: 6.4.1 (79825abcba525fcdf90b791dcacef51065a7a4e7)
C         2.58421620940719    2.23842195130287    1.42598623498966
C         3.22194418226169    1.10175745827492    0.64862780312962
O         4.27519869043833    0.66925132624401    1.51240566258135
C         4.82614525756842   -0.58057829933292    1.05968239545413
C         6.19676653953472   -0.46826840990127    0.37868317940486
C         5.09794118555420   -1.60811794857370    2.18077400788602
O         5.16242054814180   -2.91459603996110    1.57501844709165
C         4.23402975579159   -3.74467509683194    2.30111083094931
O         4.27378003884422   -3.26716742034722    3.65953650190409
C         4.04145893877972   -1.89862145313148    3.26034771747010
C         2.65133649637483   -2.00083936182598    2.58509569127561
C         1.65520953637173   -1.87440532321769    3.74082550280903
O         0.30680722649072   -1.61201684656900    3.37502847823616
C         2.80863023266009   -3.37828608529066    1.87634315189924
C         1.81561486711608   -4.50060613852503    2.15759232924818
C         6.40871741005615   -1.43808164611495    2.96654596925207
O         6.58336290001896   -0.58245836387120    3.83186732363110
H         2.39731222498920    2.03099148997813    2.48428551877454
H         1.60641794724474    2.43200150770891    0.97220691070920
H         3.24866525576417    3.10484897041081    1.35534483957294
H         3.56125601881230    1.52453846136666   -0.30050234401522
H         2.43042715897785    0.34720553242049    0.59370735245146
H         4.08045448813613   -1.05356359651988    0.41000137884836
H         6.89286960633023   -0.08053525282423    1.12904847984833
H         6.18236455402464    0.18447925668310   -0.50003924685045
H         6.49234857221599   -1.47302453591853    0.06404354182050
H         4.52096643726438   -4.79872862489570    2.25859835823547
H         4.08165498144283   -1.21222208964343    4.10790844855846
H         2.49293888373240   -1.18908960118676    1.86774219790238
H         1.99642011325304   -1.04267888786099    4.36773336882596
H         1.50333220109294   -2.69889659990279    4.44341932178570
H        -0.05746420286918   -0.76738176995451    3.68935913778138
H         2.89027973947840   -3.09793336737442    0.81874252258243
H         2.10976572271857   -4.82803123739727    3.15927814360328
H         1.97753492343973   -5.33058682974539    1.45964698938256
H         0.76900296386746   -4.18161537405164    2.15779224977031
H         7.30111907452364   -2.06450925801537    2.80993260338173
