37
 energy: -56.180540810939 gnorm: 0.118191626718 xtb: 6.4.1 (79825abcba525fcdf90b791dcacef51065a7a4e7)
C         3.84948948418126    2.73777238975276    1.14625602252716
C         3.10012536643246    1.41878806031030    1.10474672616907
O         3.77750482449978    0.39766835293913    1.84026723413280
C         4.73296451914291   -0.41936478433129    1.14017565056380
C         6.03689410000586    0.28908122463784    0.74921781247521
C         4.94208038640710   -1.61452306547079    2.09643107747413
O         5.06422934036489   -2.89491832574505    1.44554705869941
C         4.30225462531571   -3.81941279330850    2.24732967709892
O         4.37654778095307   -3.27360394736099    3.57830195294831
C         3.92093433090128   -1.95783852788485    3.19434805087578
C         2.56946959504318   -2.23064376873219    2.48867490441693
C         1.47079168511473   -2.12879289559639    3.55004154349422
O         0.16980274671405   -2.57618258527848    3.19211108386894
C         2.82619693178261   -3.64023868530219    1.87911423475472
C         1.93638630479274   -4.79543982599779    2.32468161575504
C         6.24252479984507   -1.32165610883592    2.86295412349158
O         6.29406602410914   -0.34137418451405    3.60306504510133
H         4.10282445311968    2.89608317154324    2.19921231756448
H         3.19928364039798    3.56098030159706    0.83155099444756
H         4.74891047692215    2.69593748927951    0.52458871698852
H         2.99079827950595    0.99542043296540    0.10298239400786
H         2.12632869298914    1.50476913739635    1.59789108314582
H         4.25598402309087   -0.70518967068352    0.19537462136295
H         5.91054740413200    0.80136642832737   -0.20971124769880
H         6.77280678483410   -0.47618454682733    0.48230798570006
H         6.40363718945795    1.05965449367109    1.43304384665898
H         4.75164584401504   -4.81298295813479    2.16964653862287
H         3.69695339150222   -1.19638285749768    3.94343870842198
H         2.28032974272338   -1.49466909682260    1.73146757039037
H         1.50310936567490   -1.10488607633198    3.93962771807139
H         1.78814588951947   -2.76816196969552    4.37888662462260
H        -0.38374500748085   -2.63654592877800    3.98888395130643
H         2.71963861029823   -3.49787140436987    0.79645073243776
H         2.04219524508556   -4.99672822996954    3.39491235450563
H         2.07495733936752   -5.69930806627730    1.71967415952345
H         0.89852540203285   -4.48741205718340    2.16620364752860
H         7.10698165726900   -1.91896608867915    2.53241639173232
