37
 energy: -56.179515952406 gnorm: 0.122375005065 xtb: 6.4.1 (79825abcba525fcdf90b791dcacef51065a7a4e7)
C         2.95894711684935    2.22333774361084    2.13132164427363
C         4.08319114661565    1.62161134968555    1.30852762000517
O         3.65416380986310    0.33547315538059    0.85652875639783
C         4.47470290207229   -0.81556166157196    0.58743910554636
C         5.69644129925685   -0.68935202104195   -0.33256240700808
C         4.91727605323142   -1.41442919477083    1.94096941370671
O         5.24688871931909   -2.78915822631893    1.65908612185703
C         4.45169323088546   -3.54251102293062    2.59624919519568
O         4.52145964986768   -2.70287585239490    3.76460677608349
C         3.88733718992345   -1.60870659050190    3.06680645467397
C         2.50304521956189   -2.17336171830548    2.66214020598649
C         1.39039389791456   -2.14006217079215    3.71326542560808
O         0.13867387900581   -2.53378574100882    3.16643568233244
C         2.96914383261413   -3.58976508016877    2.21382701802894
C         2.33257120896495   -4.87535625223663    2.73036709523872
C         6.15796529089765   -0.75693230018860    2.56776497418993
O         6.13748549205591   -0.03535930780327    3.56289634338423
H         2.58366065809678    1.56297609880263    2.91938284049222
H         2.21081756963177    2.41398124116906    1.35451059647373
H         3.33232701571766    3.12485773442832    2.62632435625543
H         4.96327588064234    1.57729690828678    1.95522032429683
H         4.37092262053597    2.24552385969322    0.45599734682196
H         3.77873268729853   -1.54592852743907    0.15843435444188
H         5.54787958040684   -0.82414102541504   -1.40852985936003
H         6.33025916381058   -1.54066741073281   -0.06427691261577
H         6.14455176425913    0.30718975022298   -0.28780447600512
H         4.92109191023852   -4.47836815148879    2.91090006939534
H         3.77438507971373   -0.80090039299187    3.79193411511971
H         2.15201401572567   -1.56308407880962    1.82371197273575
H         1.29239560569847   -1.13386479220503    4.13655044445692
H         1.56834543396567   -2.78194457063435    4.58091221577544
H        -0.28406850788220   -1.75500074038740    2.76682505082859
H         2.93773672589666   -3.67377915586532    1.12032865818049
H         1.24325145110771   -4.86273578581596    2.62873244780846
H         2.62315426821796   -5.01507023406079    3.77834384155952
H         2.66026112001364   -5.67688581314596    2.06154624318849
H         7.09528299476367   -0.87399929811381    2.00115133233767
