37
 energy: -56.181623997874 gnorm: 0.123914527482 xtb: 6.4.1 (79825abcba525fcdf90b791dcacef51065a7a4e7)
C         3.85778100167566    2.77926624958584    1.18319919263410
C         3.18356709129149    1.42261864712575    1.09413658870478
O         3.75329367671021    0.39611779854716    1.90913746675330
C         4.60930565260254   -0.56695563744266    1.26858484605318
C         5.71898509084619    0.14205344967086    0.48061670193711
C         4.98464099460439   -1.66694240711944    2.28628308587400
O         5.21947921430220   -2.96098977180749    1.69613493018928
C         4.34387579776911   -3.86281816251358    2.40195011510350
O         4.25632802932865   -3.35816356327147    3.74826846541176
C         3.91769048045926   -2.01528527625926    3.33809120948117
C         2.57929472817432   -2.25682255818364    2.59700364124810
C         1.36993574908900   -2.24340570448269    3.53574574950171
O         0.13912784828992   -1.94216214183438    2.89137923995905
C         2.94064256189352   -3.57850520946943    1.85739990173649
C         1.98768169815830   -4.72437716819305    2.17930979845954
C         6.24314628292726   -1.34067667043056    3.10737955864165
O         6.62812878820829   -0.17993234622202    3.23321441333113
H         3.97808816660180    3.19187562728110    2.18979621001161
H         3.30922522411458    3.61545376101660    0.73670712801510
H         4.80920507543747    2.85413781617376    0.64806836817776
H         3.07084296402146    1.13685030876291    0.04515896065199
H         2.18947333297858    1.48088985750539    1.54937952457234
H         3.99186097030031   -1.10949613640061    0.54314213391889
H         5.33322984618354    0.78039510321920   -0.32041849346796
H         6.40257150288182   -0.59979033496752    0.05539034541042
H         6.25248377961918    0.80342015504555    1.16900245156161
H         4.71659026430537   -4.88903328541584    2.45794354521619
H         3.92553103374804   -1.37692485384950    4.22327679554159
H         2.44931332990743   -1.51171348049345    1.80546032289367
H         1.56161920926116   -1.43812380002871    4.25406705809061
H         1.30973034422961   -3.13673884850283    4.16409427852964
H        -0.10108696314005   -2.73805047217355    2.38762884295347
H         3.15789055151880   -3.36921434078530    0.80251411198670
H         2.00181253057534   -4.97564283631666    3.24409723078776
H         2.33258492442023   -5.60884219601327    1.63069596933442
H         1.00293853180065   -4.43170934911492    1.80277550528356
H         6.62038771149219   -2.24194916471995    3.61602173174686
