37
 energy: -56.177401430069 gnorm: 0.125925990332 xtb: 6.4.1 (79825abcba525fcdf90b791dcacef51065a7a4e7)
C         3.30224224969375    2.06316901320954    0.08745745198916
C         2.89900376645206    1.12887934531597    1.21328638921354
O         3.96679119396409    0.49224525404237    1.91830116376752
C         4.80142501751660   -0.51260742310148    1.31478475611293
C         6.15621012770890    0.05466665773770    0.87011234814890
C         5.07650850174337   -1.61433849341575    2.36219818632213
O         5.23223116152698   -2.85699059548670    1.64837146441307
C         4.18179692597368   -3.64011093299915    2.24958799184599
O         4.32298082835727   -3.30298920882146    3.64290418626556
C         4.00732559147517   -1.91003523168136    3.42776739669483
C         2.55709294624410   -2.02535121219107    2.89637142633485
C         1.55078210523603   -2.41506256739746    3.98238681374144
O         0.27865407200873   -2.31916790676665    3.35521981142609
C         2.84799138019173   -3.05970276934736    1.76946153317750
C         1.83724622621448   -4.16757674410384    1.49415733654689
C         6.39683636050423   -1.33652823224306    3.09978889750208
O         6.51110492038055   -0.49712701466006    3.99069943988370
H         3.91027994878001    2.81552284993409    0.59952358894999
H         2.42508386619903    2.61754060154534   -0.26289019011913
H         3.88095427958272    1.54878070897608   -0.68563735207597
H         2.41379295809845    0.23671131647420    0.80914406893725
H         2.36154496872111    1.62998970981904    2.02500709411702
H         4.26107190432135   -0.93711841735546    0.46058093960041
H         6.53445145049808    0.68315951094093    1.68243912710809
H         5.97503870029816    0.59400016638805   -0.06516104404903
H         6.87242295789403   -0.73180314936114    0.61632872088826
H         4.38771283323080   -4.69528358289426    2.05114876052562
H         4.10422705246035   -1.30650798770368    4.33191559451071
H         2.18564546271233   -1.07490644222094    2.49975446688752
H         1.68230490271523   -1.69425688951939    4.79746222093155
H         1.70401484788627   -3.45042084052452    4.30026043515614
H         0.02035377128689   -1.38412547033544    3.29291051324264
H         2.94520433549340   -2.48817690054452    0.83796209764468
H         2.16379557620650   -5.13931912363595    1.87650358853897
H         1.60412146321027   -4.35130161356513    0.43864240856025
H         0.85668672930220   -4.00259039442289    1.95070328149581
H         7.13059823370775   -2.11160453296335    2.82744667036367
