37
 energy: -56.175627880932 gnorm: 0.126269184213 xtb: 6.4.1 (79825abcba525fcdf90b791dcacef51065a7a4e7)
C         2.50296145922460    2.04507427063005    2.11982696653497
C         3.53178702365578    1.49254450591942    1.15069432005597
O         4.23508303903903    0.48124709183309    1.87538119550731
C         4.75496902093232   -0.55520367850791    1.02328790271374
C         5.89619834000185   -0.06673598899701    0.12108443538704
C         5.14644616286483   -1.62341566665491    2.06838407148984
O         5.14397578210286   -2.92296533560669    1.44456763238938
C         4.34901220067851   -3.77616256600037    2.29205700621365
O         4.45097488338941   -3.15976107320832    3.58996562418510
C         4.08965369212833   -1.82666107907568    3.16743248527889
C         2.67663787604835   -2.05787663412460    2.57685662361528
C         1.39452555079111   -1.78657727678101    3.36840605270859
O         0.30638821028580   -2.02156412553974    2.48433463410172
C         2.86669943789793   -3.50018750193822    2.02183688737116
C         1.95384034540733   -4.57085886288495    2.60931797164942
C         6.50722440918839   -1.32113553794632    2.71753240240434
O         6.61837304177649   -0.96285401343160    3.88828158098740
H         1.65068603284966    2.61527879922991    1.73713745432046
H         3.06492537631161    2.65365333385399    2.83628090172824
H         2.08973014207594    1.17789103344170    2.64367010462448
H         4.20845019933055    2.21068515492140    0.68045470725360
H         2.93051701968584    1.06084005371699    0.34386737862829
H         3.94626165328139   -0.94748322451889    0.39562206776812
H         5.54887594712851    0.63874196826067   -0.64023847082100
H         6.37200399271753   -0.94368951614779   -0.32947247521891
H         6.57675966029960    0.48679474696051    0.77403292267730
H         4.68177945167137   -4.81011457959844    2.41606504344070
H         4.24795124462478   -1.11728276296583    3.98158437064068
H         2.61715371710274   -1.38493970286495    1.71532250703647
H         1.34788320733610   -0.74487872330416    3.70589027259011
H         1.32345945082513   -2.48715757840512    4.20544100611210
H        -0.11335294515370   -1.14649831028455    2.42971747214844
H         2.56766653603386   -3.37091175719045    0.97414872789456
H         2.17074974297555   -4.85370422938661    3.64375269491914
H         2.07676898892634   -5.50806679892627    2.05367097710422
H         0.87750774881213   -4.41148124860289    2.49417224530507
H         7.29483195936971   -1.61383586990472    2.00526776358669
