37
 energy: -56.177763440459 gnorm: 0.123830127958 xtb: 6.4.1 (79825abcba525fcdf90b791dcacef51065a7a4e7)
C         3.51645363782477    2.25949951446314    0.43217880707501
C         3.02516202959453    1.29284500531530    1.49387597826558
O         4.17209509718597    0.63917480343596    2.04139640150384
C         4.75964472165455   -0.40807220445429    1.24853213364203
C         6.09455440704526   -0.10996527899596    0.55274155397465
C         5.03289570614520   -1.48458778291767    2.32231297269589
O         5.30423220897757   -2.68399680972706    1.57013155779297
C         4.29213061622507   -3.58720872507992    2.05799368228477
O         4.19672967201079   -3.26035389833039    3.45762883226533
C         3.87367269851636   -1.86673613427437    3.25836375425903
C         2.49786893106733   -2.07460059325053    2.57806196247157
C         1.42374401479701   -2.18071912168628    3.66386138220899
O         0.08145563037933   -2.06102653064219    3.21133565594143
C         2.83296606105516   -3.30612311502077    1.68615775005582
C         2.08667904357834   -4.61783665665958    1.90351961182570
C         6.23601940997322   -1.23180385808193    3.24593511762353
O         6.23410562596427   -0.83047384780673    4.40796086936227
H         4.33396200111418    2.89273583704992    0.79085652491916
H         2.63911669663188    2.88787070951034    0.24534279777015
H         3.80271356387625    1.86287023777448   -0.54655455392742
H         2.27458315840493    0.58755266670123    1.12792733165076
H         2.67244424906217    1.83407408385702    2.37791518410770
H         4.02632892900167   -0.77912150575347    0.52298020722473
H         5.97005067378555    0.75288337189496   -0.10902546542212
H         6.48375440535873   -1.01191824743557    0.06958087534087
H         6.88442489003718    0.16143326316607    1.25868004877251
H         4.59974021095428   -4.63001673747614    1.94355332588023
H         3.98320636640085   -1.35681399936110    4.21706119705850
H         2.18841174944053   -1.24979668587247    1.92801714626180
H         1.55507940204945   -1.28053317598254    4.27510868945008
H         1.54046183231118   -3.04246290213413    4.32738626183626
H        -0.18495497188842   -2.98837173919147    3.09317429524205
H         2.84504387041232   -2.98668509014758    0.63658791278091
H         2.29941634859717   -4.99829497564796    2.90706367773808
H         2.39017998350667   -5.35153131485731    1.14734960769662
H         1.01143990492536   -4.50509575814779    1.73528790527415
H         7.22428656331262   -1.54804761300368    2.87628940132115
