37
 energy: -56.176046691550 gnorm: 0.121560356971 xtb: 6.4.1 (79825abcba525fcdf90b791dcacef51065a7a4e7)
C         2.57915645252546    2.22475335144754    1.52233815488086
C         3.72264204102810    1.57497405654158    0.76522730048791
O         4.39408903360082    0.70117864826036    1.67525990128818
C         4.76038533436069   -0.54132139487492    1.04868566327625
C         6.01334614616088   -0.49866717257380    0.16367381704060
C         5.02841922302692   -1.53593904617994    2.19996789957218
O         5.18558456392503   -2.88916547624099    1.72873579980053
C         4.24825509361791   -3.65076357697496    2.51583976864544
O         4.26997675390797   -2.98729468771936    3.79421810596638
C         3.90323238467664   -1.70718829834326    3.23469236281354
C         2.56359022136755   -2.10053377690135    2.56425041143195
C         1.46599651346300   -2.13454055298918    3.63106692742392
O         0.18104032345169   -2.24813501384467    3.03371622824500
C         2.86792655225232   -3.46478961950155    1.87823558034918
C         1.98081601826311   -4.64108289273145    2.27085748249324
C         6.36707276927133   -1.18917906277542    2.87246210943193
O         6.63041993419259   -0.38292207448743    3.76238976879078
H         2.07430317265551    3.09766997028120    1.09678250418656
H         2.99599177065108    2.63800461367928    2.44697314963153
H         1.87303974682171    1.46784492965737    1.87683407868146
H         4.38419773797291    2.36473146214702    0.40005386320041
H         3.41630413913300    1.00773985584699   -0.11979615500808
H         3.82351024353900   -0.97008520499358    0.67414338559651
H         5.96590440349434    0.15415786768762   -0.71354525860126
H         6.24441414718355   -1.49794089408520   -0.21907890728900
H         6.95017122664003   -0.22337323046856    0.65609002272034
H         4.54513859040373   -4.69152310969826    2.67026968238017
H         3.95048165690269   -0.84451235306535    3.90153322195340
H         2.24984023079310   -1.28176384278506    1.90865888257372
H         1.45519749905940   -1.18984509735853    4.18662148829813
H         1.62133720185203   -2.90368788932010    4.39315111777967
H        -0.55236427084483   -2.38226109253186    3.65744192719177
H         2.88703172451916   -3.42982372440225    0.78178870397020
H         1.01712811716361   -4.66702300795817    1.75342233812125
H         1.79570886074865   -4.67414760742675    3.35106848730813
H         2.47406355064541   -5.53245450811895    1.87171447256363
H         7.19173704110538   -1.70442562795217    2.35499726249732
