37
 energy: -56.180930295848 gnorm: 0.119024360647 xtb: 6.4.1 (79825abcba525fcdf90b791dcacef51065a7a4e7)
C         3.18397965889187    2.52187444308510    2.01415902385426
C         4.27978451773766    1.51347276292335    1.72205111161388
O         3.58890429760706    0.37459430005388    1.20421023125220
C         4.40737452919915   -0.70621317868491    0.72199007545640
C         5.64048332833002   -0.18897829963011   -0.03092885771801
C         4.89850708310446   -1.57271023188757    1.90289180127921
O         5.07546569549441   -2.91982134531348    1.42126984938624
C         4.34002752347530   -3.73147925639482    2.35854941896324
O         4.55497448077788   -3.02125342678481    3.59317124447820
C         3.94980043945442   -1.81005325769830    3.09017881190946
C         2.52874261794651   -2.19072124146217    2.60588472940813
C         1.34781137143074   -2.07091444774126    3.57284574352512
O         0.20437261561102   -2.46032617777816    2.82334571864758
C         2.82310330513177   -3.65335918592328    2.16038164696245
C         2.14974168644968   -4.76918669205849    2.95177032211833
C         6.21968841324757   -1.03299527649006    2.47531815934648
O         6.39753047599693   -0.22636261577783    3.38586154444255
H         3.40414292470252    3.47823923605174    1.52954331080629
H         3.06881205885560    2.69605363167454    3.08927585267480
H         2.23596904029378    2.07197625364902    1.70424612055564
H         4.74316334833204    1.33508380174847    2.69579737007708
H         4.86097994397873    1.97525427562481    0.91716989355229
H         3.72954927360731   -1.27954877076433    0.07879922460121
H         5.30710280034583    0.39379783896352   -0.89532110750047
H         6.22504458203129   -1.00947015925001   -0.45932270523934
H         6.37348088434512    0.39012608560031    0.53762580156275
H         4.85678530078781   -4.69304559552745    2.41788229510446
H         3.98165523641560   -1.01194207154967    3.83390108592403
H         2.32115529112834   -1.53951336420007    1.75063077705209
H         1.15260479936290   -1.04621610252741    3.90914127563883
H         1.38343561653532   -2.65654511644027    4.49602411134898
H        -0.26676282052557   -1.76566270289221    2.33306018038241
H         2.60957956067656   -3.78938317541045    1.09281972139451
H         2.53195783389617   -5.04851471860781    3.93817442747973
H         2.23999026546583   -5.69730986045236    2.37500665191467
H         1.08844847988421   -4.60760429951387    3.16319285373644
H         7.07003256764604   -1.59020744803177    2.05134944265726
