37
 energy: -56.178676639537 gnorm: 0.130646697653 xtb: 6.4.1 (79825abcba525fcdf90b791dcacef51065a7a4e7)
C         3.13045540427743    2.43054807922865    1.48377523914325
C         4.04729130799865    1.61528773383662    2.37694474828595
O         5.10118003221208    0.98902085242968    1.64235154658964
C         4.82786954327943   -0.30729161117663    1.08070218805676
C         5.78854546184744   -0.57161657321898   -0.08643545109146
C         4.87547204000606   -1.38090191291801    2.19050043798451
O         5.19100112655821   -2.67544569184774    1.64042751787542
C         4.39097076895298   -3.58335962864330    2.42387791760663
O         4.18611155228547   -2.94709003830049    3.69985113019446
C         3.67876632215126   -1.74153522798870    3.08708588106314
C         2.43936134824631   -2.23536735168042    2.30040980580644
C         1.16792032615578   -2.27998299999558    3.15212155419783
O         0.01391880636388   -2.59172252825326    2.38274332436819
C         3.00552861226803   -3.58556010200264    1.77044285729523
C         2.19542512721762   -4.78720508216942    2.24432521434050
C         6.01192787388496   -1.05728623356710    3.17448486540971
O         5.71794383555394   -0.47648215733083    4.21737189143515
H         3.46494491479264    3.44584405993501    1.24872479361037
H         2.12497695385930    2.51417377945771    1.90980105076768
H         2.96159854916251    2.01808004216686    0.48450750476064
H         3.52263780041486    0.74329830014758    2.77581499046314
H         4.56431767796549    2.29796797259941    3.05921705140852
H         3.81347303910904   -0.28181569934404    0.66572510386453
H         5.83113854894147    0.30292980006780   -0.74316906790741
H         5.52237791694362   -1.51167217996442   -0.58028800218682
H         6.80423726969109   -0.63167891945327    0.31439417435927
H         4.87896863859532   -4.55933896672221    2.49089413262206
H         3.44067902015182   -1.04770908955037    3.89519398255827
H         2.32258084228538   -1.50136243489301    1.49653013006912
H         1.18415318938887   -1.33263936355269    3.70301489605940
H         1.24600404491438   -3.08735744452826    3.88597444191514
H         0.14818947140134   -3.32339220705355    1.75701438253659
H         3.12591205387988   -3.58392253310100    0.67989783784636
H         2.09051473712159   -4.84185540957733    3.33203542435967
H         2.71005673619580   -5.72873206295767    2.01872608350072
H         1.20744141940488   -4.82686125891613    1.77585198105003
H         7.02644420626139   -1.28563983554390    2.81126135620417
