37
 energy: -56.174214501551 gnorm: 0.126055828284 xtb: 6.4.1 (79825abcba525fcdf90b791dcacef51065a7a4e7)
C         2.49868412597060    2.43898485219555    1.27072282350867
C         3.74153458071533    1.71088053287730    0.79304499605206
O         4.14039855031044    0.69680590607684    1.71774980275000
C         4.68093431392054   -0.49392077878134    1.11727864315915
C         5.90217923815840   -0.35910334160460    0.19784337681827
C         4.97682584444692   -1.55065454682799    2.20462362207363
O         5.15987131249499   -2.85356786897344    1.61564686630013
C         4.32481923615239   -3.71938233552859    2.41013046959723
O         4.30156851936131   -3.15031639064821    3.73320919944061
C         3.85603842990688   -1.88211218290223    3.20462252341922
C         2.47625552362556   -2.30525788197921    2.64248284382577
C         1.47310355056066   -2.56707058886771    3.76902893504909
O         0.65958748318293   -1.51433034703741    4.26980188616966
C         2.87520282614699   -3.62760882954048    1.92369221204828
C         2.02655273541004   -4.88885139177536    2.04134908406143
C         6.30956860484360   -1.28439054943205    2.92391803929749
O         6.61008934799776   -0.16048933059857    3.32129271691627
H         2.39279329512444    3.25780915483854    0.55220228641963
H         2.53177981530014    2.74855597052906    2.32074594546803
H         1.62920540118868    1.79532494550747    1.10674968320850
H         4.54822006186791    2.44836332600075    0.80314449507351
H         3.63617374053717    1.21729941509273   -0.17862410059567
H         3.92637011487219   -0.97618367271952    0.48489378275991
H         5.71059478979153    0.23181079919055   -0.70330058052672
H         6.13340937964982   -1.33756065601942   -0.23527778167530
H         6.78222880378035   -0.00051312396107    0.73897877621374
H         4.71769432863700   -4.73914362795517    2.38004923093290
H         3.70564821660457   -1.14229295465440    3.99276545900866
H         2.03231672647538   -1.54890497619563    1.98714161234381
H         2.03938906084028   -2.99550274904435    4.60387837961062
H         0.73666134506983   -3.25822998573855    3.34897865792369
H         0.68027153122763   -0.68529097288794    3.76268085998878
H         2.84446878409957   -3.40936423100171    0.84888613984967
H         1.89841760280383   -4.99142790902019    3.12309112217110
H         2.54469797329606   -5.72846624879090    1.56303312721753
H         1.11491248456529   -4.71120754650982    1.46298384924260
H         6.99467936207824   -2.14048640247475    2.81883148171045
