37
 energy: -56.184485496158 gnorm: 0.117762597322 xtb: 6.4.1 (79825abcba525fcdf90b791dcacef51065a7a4e7)
C         2.64606089414743    2.39177018894563    1.63778733737698
C         3.68406371069488    1.56742041863025    0.89887809649123
O         4.26578342636350    0.53328628943999    1.69555090989916
C         4.75927287301735   -0.63143576942360    1.00964619631871
C         5.97362821214934   -0.39306233865404    0.10217976499035
C         5.07639675539592   -1.64157549896792    2.13463834122071
O         5.14621927732439   -2.98274276687369    1.61082773739912
C         4.31026094358108   -3.74161210637633    2.50717691279831
O         4.33916805642102   -3.08714339144938    3.79004442338834
C         3.98355972527275   -1.81629312569280    3.20291142853611
C         2.59152769781295   -2.13254091429602    2.60200515149497
C         1.45940469076924   -1.93843882938865    3.61422437099691
O         0.18411126288521   -2.19357963282307    3.04031339697050
C         2.86422233560574   -3.55743907986857    2.03655506053803
C         1.92457895281816   -4.69102916764110    2.43256862533654
C         6.33844061951651   -1.28154301408638    2.93595359390416
O         6.65508865723009   -0.13155282996514    3.23366132434317
H         2.25718583871851    3.19530381521277    1.00448822186855
H         3.00672884812844    2.78595594601056    2.59382832703052
H         1.72827352084847    1.83989681390690    1.86202077238100
H         4.52246484427805    2.13688563329767    0.48958939365244
H         3.24942274946139    1.24702253975805   -0.05364302783823
H         3.92363166162759   -1.05488144631201    0.44021423564163
H         5.77605879412184    0.41940318329634   -0.60408552040172
H         6.23651690815271   -1.32367205511904   -0.41094314245792
H         6.77876519983002    0.00908602736436    0.72341468602412
H         4.76722835352001   -4.73452008139441    2.52916212842750
H         4.04001856672899   -1.05326558712357    3.98119182167186
H         2.37980003821536   -1.46416326390043    1.76113285414799
H         1.48025867327227   -0.88983078043276    3.93233325641870
H         1.63030840746875   -2.60016615553778    4.46827327492626
H        -0.47664397360303   -2.37434511174573    3.72997433529881
H         2.77858776541939   -3.45203783597306    0.94782154065551
H         0.86138202622811   -4.47519825249796    2.29066830934132
H         2.29210718151454   -4.90159637783085    3.44390348781518
H         2.17218814810034   -5.54812212736678    1.79913909383256
H         6.90976965717994   -2.19786212763710    3.15335289316954
