37
 energy: -56.172962997885 gnorm: 0.131591716325 xtb: 6.4.1 (79825abcba525fcdf90b791dcacef51065a7a4e7)
C         3.65374860893657    2.65394307187080    2.08440955517606
C         3.43346572157244    1.22991146940373    1.60838569732246
O         4.61596857720143    0.70565809808928    1.00063228309566
C         4.50483846445708   -0.69224122557909    0.67798356242358
C         5.60939620482747   -0.88646274364069   -0.36949262242013
C         4.86452999896147   -1.46369669670913    1.96718318718165
O         5.25890691174342   -2.82834144254729    1.72183860079039
C         4.44462432264200   -3.59559105059053    2.63091657217028
O         4.40023562631383   -2.71275390692105    3.76825653376985
C         3.79638996880665   -1.60505744003067    3.06496298096379
C         2.50106730742946   -2.25622113218950    2.52000495319958
C         1.44202881385156   -2.16873997955817    3.62216210947911
O         0.16190342799421   -2.49209573410922    3.09531865841979
C         3.00628737021522   -3.67064029327010    2.10939312943793
C         2.23191395679302   -4.90318519819970    2.56322325557056
C         5.96333361766561   -0.74602865761490    2.76847432961981
O         5.72498743617833    0.26097406660265    3.43218355173561
H         4.19658244356742    3.10848801354675    1.24973704780680
H         4.45907074428582    2.46266195129194    2.80158871912240
H         2.79717846406072    3.20768060031910    2.48044093891576
H         2.61868033195606    1.31767727250778    0.88509718518918
H         3.20291618200431    0.56111751045716    2.44410431981601
H         3.49251674565478   -0.93599844620290    0.33499318650393
H         5.48187845359787   -0.32635870836170   -1.30114022465216
H         5.72829297284075   -1.95383154918483   -0.58168930556474
H         6.58905241114218   -0.66110575748188    0.06107637268495
H         4.90371837187792   -4.53985824823595    2.93548334473483
H         3.75646834627638   -0.75780305788430    3.75175646163743
H         2.15776175273420   -1.71682280498621    1.63129001020375
H         1.54607164513058   -1.15649059359746    4.02926561193396
H         1.48563989695978   -2.96699199204434    4.36874262370846
H        -0.06493429341489   -1.79253622920674    2.45965601241483
H         3.01602716998732   -3.73025215906140    1.01388642758628
H         1.14400786052865   -4.78767427949541    2.54825867589778
H         2.63446868449602   -5.22390936297958    3.53136552259466
H         2.45636178043459   -5.73088855152807    1.88375143360285
H         6.90551236428234   -1.27845488214475    2.56319016349730
