37
 energy: -56.178456126332 gnorm: 0.119418244409 xtb: 6.4.1 (79825abcba525fcdf90b791dcacef51065a7a4e7)
C         3.25532755894484    2.32706432943902    0.29845649229254
C         3.18555027344552    1.51075804354290    1.57586184677034
O         4.33539250379016    0.80748181032803    2.05102938675050
C         4.60438205405350   -0.39794679692282    1.31267913307304
C         5.71139174745347   -0.03961223767842    0.31212827982960
C         4.97315967123591   -1.46797393149647    2.36415532558467
O         5.19319169411419   -2.73932588040551    1.72132368452892
C         4.36851752982679   -3.67594410123593    2.44299514101315
O         4.36911790682204   -3.12196468935846    3.77266443176746
C         3.87420655959225   -1.82302403900926    3.38016118593834
C         2.53921606897147   -2.15110917557172    2.66670850315635
C         1.39199921466533   -2.29420463504605    3.67039324488481
O         0.10660341776215   -2.48459057774648    3.09389103038354
C         2.97380989295040   -3.41399055250830    1.86627749415139
C         2.03041990782542   -4.60073861724372    2.02884223033443
C         6.25890796862786   -1.07333228501193    3.10953678945693
O         7.13563435072503   -1.77406724790284    3.61122858001824
H         2.45075343377597    3.06792320719918    0.34024726854193
H         3.25805409641777    1.75626388071376   -0.63624002146908
H         4.19026943880946    2.87950382723765    0.43214569495888
H         2.31556365212896    0.86295088641724    1.44097855580988
H         2.96661985930483    2.20225282594181    2.39608651396700
H         3.66592890175645   -0.70392357468669    0.83566851208727
H         6.73218479496263    0.03626813901079    0.69964379846339
H         5.48008934244399    0.92012504417335   -0.16099282734433
H         5.76460608179618   -0.76381628618402   -0.50555040805179
H         4.73591232557427   -4.69524321256599    2.29732702887220
H         3.85643532849165   -1.09588458881435    4.19383889165537
H         2.18281086604592   -1.34539992973778    2.01676123242868
H         1.31435860430983   -1.49690479516534    4.41838515058673
H         1.64377850386413   -3.16182365882772    4.28710637824061
H        -0.05428820537641   -1.75879269433476    2.46760262277221
H         3.19257523295036   -3.02243298419292    0.86497445232918
H         2.00239973915821   -4.95371090478291    3.06408704477215
H         2.34385328707772   -5.43014748437255    1.38381959572732
H         1.03406433593465   -4.24457403689204    1.75032114564981
H         6.37466857143125    0.01474938213245    3.23601925063675
