37
 energy: -56.177434905808 gnorm: 0.136936537976 xtb: 6.4.1 (79825abcba525fcdf90b791dcacef51065a7a4e7)
C         4.02035788340359    2.48370885670904    0.57593864464244
C         3.13752448259957    1.33447962415918    1.02634581760850
O         3.81131102000651    0.38679894039587    1.85726809453103
C         4.58338950544684   -0.61067401955099    1.16479635465447
C         5.73155975016426    0.05847997316687    0.39738893206619
C         5.02066025221975   -1.59271007984054    2.27428122014266
O         5.22148950991007   -2.89769445033341    1.69577814476214
C         4.24446070908333   -3.70813668333563    2.37896843216938
O         4.24063992353457   -3.24991102675381    3.74459232723863
C         3.95714090278936   -1.89124642166551    3.34471528571759
C         2.52780167331936   -2.11460428925551    2.79158344869668
C         1.53297832706565   -2.49899346900827    3.89000839224687
O         0.20535355726795   -2.42940777677764    3.38660569845276
C         2.80344006092948   -3.40154370528570    1.95957299780595
C         1.84876306306907   -4.58637271933045    2.05732248814702
C         6.33335578688568   -1.23040743925662    2.98846011654105
O         6.48779385653100   -0.11677982987537    3.48580883017144
H         3.41582182028946    3.36631259575969    0.34462790826679
H         4.81265849406233    2.26803801251154   -0.14878474309294
H         4.61971345035813    2.74603456168050    1.45294300598731
H         2.60033670631487    0.86947873981099    0.19572688771574
H         2.39280582993181    1.79336498328570    1.68489150338371
H         3.92909745018610   -1.17807504618556    0.49262582137419
H         6.21424058996469    0.85119012583672    0.97753923915048
H         5.30002328868791    0.44116587184697   -0.53307752264704
H         6.54310713905856   -0.59950307802643    0.07435512248146
H         4.56584438120738   -4.75183551312581    2.32823282108698
H         4.06289688157856   -1.21320762265432    4.19336013031867
H         2.16059236838031   -1.25211468378458    2.22599303283401
H         1.52100417164543   -1.69791787320244    4.63789976439593
H         1.64359124563485   -3.45600287656386    4.40807059214589
H        -0.05313630639592   -1.54819099102297    3.06794315179263
H         2.81390683102368   -3.05880155196636    0.91736301601225
H         1.74939311281106   -4.94135069137389    3.08747909881179
H         2.22606743889418   -5.31523825004152    1.33026664503544
H         0.86814141733270   -4.25965138089159    1.69845484843677
H         7.03259143442079   -2.04238738590001    3.24356425541637
