37
 energy: -56.171660804662 gnorm: 0.136439194963 xtb: 6.4.1 (79825abcba525fcdf90b791dcacef51065a7a4e7)
C         3.73714262997063    2.83585459190430    0.49949541392895
C         3.09399688125415    1.67805719932509    1.24034493028201
O         4.00791404350709    0.87073745235230    1.98566972611730
C         4.47562534496190   -0.27919837654442    1.25802398666030
C         5.77287036433717   -0.08822842962275    0.46073985524733
C         4.83300685025768   -1.40640360849579    2.25212861787590
O         5.05031235104130   -2.65109302658727    1.55822014437816
C         4.38764793978909   -3.69024881781223    2.30600485377721
O         4.44131630547559   -3.22827915707324    3.66931615565271
C         3.89925453293625   -1.92604286310986    3.35852279641710
C         2.51620577785292   -2.28773032072121    2.76252572784818
C         1.37022995339635   -2.29844838204870    3.77770570864086
O         0.11456423911628   -2.67291168567404    3.22641195095341
C         2.90689803653714   -3.55047769017189    1.93956790565410
C         2.14027408178293   -4.81478895309332    2.31184153165023
C         6.15429857133475   -1.04261102938321    2.94950041771142
O         6.93169129714582   -1.86032492576589    3.43773995415031
H         3.03598633622507    3.56740100366356    0.08575930600815
H         4.41959123122019    2.55806097681565   -0.31079636871269
H         4.29780716554641    3.41464681416817    1.23965307429671
H         2.44133277583474    1.07283226510179    0.60595019509052
H         2.49000684111196    2.10606794758385    2.04710815166821
H         3.68723880695232   -0.67894643628270    0.60956165168491
H         6.29480628184627    0.83016677444579    0.74723193003737
H         5.56046993485955    0.09247413225760   -0.59787843278591
H         6.45209604428731   -0.93776255019904    0.57407989158638
H         4.83098721405849   -4.68783504165826    2.24734635394279
H         3.89430524218307   -1.26956703036047    4.23037942507708
H         2.25116582530397   -1.51438521660995    2.03429864444937
H         1.44084290144356   -1.23605248739285    4.03758215671735
H         1.54765015353371   -3.04928992881566    4.55310864143596
H         0.09347228832298   -2.11146033651256    2.43316963942790
H         2.75574146632539   -3.45609688912618    0.85696579859840
H         2.19624606883577   -4.98816297335883    3.39069044248410
H         2.39649180925448   -5.81461003605531    1.94180907218008
H         1.09171730320271   -4.61176260814744    2.07422711445653
H         6.28714952053362    0.00927086453197    3.24818948288359
