37
 energy: -56.178077970569 gnorm: 0.113840343198 xtb: 6.4.1 (79825abcba525fcdf90b791dcacef51065a7a4e7)
C         3.02778026699012    2.72021164059247    1.41747824376772
C         3.55117112993490    1.45963123991112    0.75416208865839
O         4.09006679809570    0.51514472672358    1.68155385541234
C         4.70420109404633   -0.64013915444039    1.08261077026747
C         5.99547844547509   -0.31683169268688    0.31903286390470
C         5.00664961360712   -1.59447012926150    2.25918821184437
O         5.27812452824068   -2.89783172726385    1.70643843505207
C         4.33789118649891   -3.73866023913728    2.40437792921268
O         4.23596940248531   -3.15853009899630    3.71890253565937
C         3.85761496093176   -1.84564388360479    3.25047905636891
C         2.57154912535417   -2.16382666443456    2.44820192454227
C         1.54950267691297   -2.16909048777632    3.58809632899144
O         0.17447994095201   -2.28034188235290    3.24490604116118
C         2.93866684427480   -3.53778410933129    1.81424886308457
C         1.95372602680588   -4.64822971890398    2.16293935395851
C         6.29354556865288   -1.16323532165124    2.98197421070667
O         6.22632110976540   -0.56223149919611    4.05232396045785
H         2.71250465288194    3.31556019148900    0.55485476853634
H         3.81795223034079    3.28733680535791    1.92094172367014
H         2.19453198499262    2.49201114221710    2.08889491977039
H         4.27155287578396    1.77161701041383   -0.00638991764060
H         2.62027178557774    1.13264367244591    0.27943100362260
H         3.99335901218325   -1.06829583074647    0.36620262344755
H         5.71823038196379    0.23077595076447   -0.58717017092926
H         6.51810986236097   -1.17111388458367   -0.12311911279096
H         6.71785237304369    0.22281714963607    0.93778704891621
H         4.78732103634392   -4.73347537747629    2.34501073104532
H         3.74264383022357   -1.08976911513429    4.02929480728733
H         2.19712398967738   -1.41962902377555    1.73785046093851
H         1.73241061859035   -1.19358428270277    4.05300420001725
H         1.91952374919393   -2.94266463437595    4.26718256902223
H        -0.38246449235430   -2.17654610524005    4.03480805209788
H         3.08154711669990   -3.48734531482318    0.72759135775239
H         1.03893184540514   -4.30961076227705    1.66736372827914
H         1.87282128540726   -4.88932638783643    3.22949482280402
H         2.26851202909910   -5.58838236837953    1.70014955782601
H         7.30331362257954   -1.41471446608533    2.62080007765957
