37
 energy: -56.185650534685 gnorm: 0.108684815130 xtb: 6.4.1 (79825abcba525fcdf90b791dcacef51065a7a4e7)
C         3.31572926194758    2.03633454853236    0.38735570158102
C         3.34734595499374    1.63702960769855    1.85109926154049
O         4.49892141443478    0.85775446196591    2.18143698015619
C         4.77129168112780   -0.33055048397445    1.41702845965438
C         5.99646447392974   -0.17281150206757    0.50650872713169
C         5.00218871123882   -1.54233009854172    2.34699293589241
O         5.21401524552659   -2.74563304875356    1.58202632168310
C         4.28823564315394   -3.67845774954490    2.17441222975683
O         4.19710822646190   -3.34670001169499    3.57317831753821
C         3.89080426631122   -1.95693393733587    3.32625526754448
C         2.53660946238866   -2.10967491395373    2.59026557449604
C         1.41349683912347   -2.26169195880847    3.61957346624136
O         0.14092087786371   -2.29980555620696    2.98716399191856
C         2.89342712097610   -3.30730311661503    1.66139593590620
C         2.01699455523461   -4.55042713096500    1.76765770869436
C         6.20600938455992   -1.21190864574857    3.24483575357766
O         6.18201394756001   -0.50419608396360    4.24979369112876
H         4.26960622704171    2.35044092469272   -0.04786124133632
H         2.62804560531241    2.85953630827838    0.16620369500257
H         2.97066586759841    1.17734857769693   -0.19595628619079
H         2.44832109383836    1.06590440880464    2.09664893380389
H         3.41159263361399    2.52366948642768    2.49032234532855
H         3.89954092906579   -0.56422263992713    0.79469158071109
H         5.72975015791864    0.37141529569425   -0.40487770536486
H         6.19706696160961   -1.17128268742122    0.10494431703980
H         6.84930434230207    0.29660615254700    1.00471845204482
H         4.69627861891210   -4.68828784769306    2.08000399361848
H         3.92275357474090   -1.23155577138734    4.14107105628759
H         2.22229312312793   -1.28209543001772    1.94610647324627
H         1.41906010743963   -1.30923253103837    4.16178844668754
H         1.49613774590712   -3.04814576292567    4.37531916263917
H         0.04478721470618   -3.06693657483433    2.39794911569919
H         2.93786633815013   -2.88918341276903    0.64799352490770
H         1.74498667410613   -4.75806037823957    2.80689133824299
H         2.55624608980026   -5.37323597452074    1.28350159765050
H         1.03143854312664   -4.51534645788355    1.29373754931772
H         7.06610192344897   -1.72835853985223    2.79003866940449
