37
 energy: -56.180677013656 gnorm: 0.124793230532 xtb: 6.4.1 (79825abcba525fcdf90b791dcacef51065a7a4e7)
C         3.50860605724655    2.90214295131087    0.90537408616151
C         4.23114421110747    1.78150253838445    1.63000705725477
O         3.49485711391190    0.57200153907066    1.43633867880031
C         4.07664274140104   -0.65506594372407    0.96051783573045
C         5.08318794319113   -0.35541727429068   -0.15843416838762
C         4.76282578918330   -1.47300323602316    2.07706995171779
O         5.21292096042105   -2.76898121336548    1.63453426411566
C         4.61718939103713   -3.63712412966385    2.61920814101389
O         4.66797551312661   -2.84727281130239    3.82273198474112
C         3.83738697583684   -1.80875181052339    3.25895927019290
C         2.55362058871376   -2.46963637734058    2.69857576445479
C         1.42686794672500   -2.55928766531247    3.73122140689807
O         0.19181078363325   -2.96721617551501    3.15757334052388
C         3.15702497383891   -3.81212193897772    2.19057316156370
C         2.41384194019330   -4.97689503119472    2.83537201357384
C         6.05960023641976   -0.77047399734884    2.51217107547810
O         6.13391995215592    0.19658292803327    3.26758539509930
H         2.48765131551217    3.00187845531662    1.28703114804763
H         3.43600154524116    2.56162555142677   -0.13301632491660
H         4.03119669906366    3.86321168864376    0.92597559494218
H         4.35325945903626    1.83054130394439    2.71509111018882
H         5.27011639834975    1.68674591933742    1.29770894385014
H         3.22457498862260   -1.16676301674117    0.49791444613854
H         6.07583239177771   -0.15539458332328    0.25700835132300
H         4.73955930626247    0.49459580101412   -0.75662909647723
H         5.27005256228695   -1.26898642342608   -0.72972633376758
H         5.34232139024937   -4.44356287917650    2.75708107409300
H         3.66860075754614   -0.98911729163372    3.95955151049495
H         2.23830039603821   -1.92438365542615    1.80308921004335
H         1.32561299349208   -1.62900181847961    4.30176734797513
H         1.68437666095497   -3.28955008645788    4.50381232744971
H        -0.35552881072991   -2.20603454720491    2.90080934567959
H         3.19310196956378   -3.88413436579730    1.09636292270313
H         1.33939694794573   -4.85453086544873    2.66893474820388
H         2.50905440206783   -5.07150622182761    3.92358020294016
H         2.77030695594397   -5.94526058903682    2.47156922636395
H         6.91580117544341   -1.32888595169632    2.10178576882457
