37
 energy: -56.170752009111 gnorm: 0.132179868527 xtb: 6.4.1 (79825abcba525fcdf90b791dcacef51065a7a4e7)
C         3.04349955097393    2.53813373339903    1.82706552842067
C         4.15133371215355    1.50736662607542    1.71212248265934
O         3.54318188809900    0.34087526865672    1.15358146400263
C         4.43977696910055   -0.70951464076387    0.74938735900936
C         5.58358803038812   -0.28021502371342   -0.17925370270147
C         4.95553428323630   -1.55890643451187    1.93221666164799
O         5.17612488401336   -2.92929929587817    1.54318505412704
C         4.43069600721922   -3.73212074096485    2.48018258959636
O         4.49753836946519   -2.88388310651655    3.64248160111661
C         3.88670544101587   -1.72976375998921    3.02512065657630
C         2.54147140575995   -2.25246975526629    2.46300140100709
C         1.43698566870794   -1.95229982180390    3.47984709898775
O         0.09869721875044   -2.03374429297579    3.00741213255230
C         2.95651238157934   -3.69952933410708    2.06526965171055
C         2.25258999652209   -4.83835736534790    2.79489073891939
C         6.25205537803795   -1.04429027467686    2.57927733797263
O         6.25096108982320   -0.40087018032584    3.62683769011031
H         3.35378766669562    3.43187429934275    2.37743536227748
H         2.17713301002250    2.23703632506343    2.42558664470490
H         2.78228968947278    2.95376895821438    0.84921314305701
H         4.57823465118653    1.18313483362752    2.66467361969777
H         5.02832758865761    1.78753613902761    1.11945829052034
H         3.80822683956798   -1.36663932193218    0.14013631673901
H         5.19441139309703    0.20564560382192   -1.07949009123372
H         6.18240782570428   -1.13688619921649   -0.50478309075284
H         6.21389314456911    0.48964872092740    0.27453808090706
H         4.92514730959529   -4.70218497375755    2.57847863638849
H         3.88029200550844   -0.87238532100975    3.70038364510523
H         2.24399660560414   -1.56768165614520    1.66225329383720
H         1.47135911518925   -0.95821489649630    3.94008684712715
H         1.65381381632295   -2.66257753655727    4.28295468824708
H        -0.24135075981865   -2.84841055853006    3.41434222677390
H         2.97465067713048   -3.91554625127394    0.98972742493186
H         1.30131002092907   -5.09212075008344    2.31763090727759
H         2.00887146746835   -4.49719873222213    3.80801749397269
H         2.73376148335395   -5.77844055258506    3.08101873526543
H         7.17995493925005   -1.48745780077968    2.18440395004524
