37
 energy: -56.179621435778 gnorm: 0.114745872217 xtb: 6.4.1 (79825abcba525fcdf90b791dcacef51065a7a4e7)
C         3.32589940971623    2.68151184548181    1.75458601007595
C         3.23851427107652    1.25207787151520    1.25251866556643
O         4.57763860241025    0.76970933813702    1.12373423419904
C         4.64492578535914   -0.63519795068730    0.81995382263179
C         5.73159936322833   -0.74240534579146   -0.25829626485411
C         4.92704570384830   -1.48553174638473    2.07848390543457
O         5.28021995984828   -2.84101022926696    1.73800128904805
C         4.44701071168265   -3.64692930534709    2.59497716167350
O         4.33224993496859   -2.88008013924351    3.80893197635931
C         3.83299613075089   -1.70260373131962    3.13771084581043
C         2.54080711352448   -2.25044657034553    2.48275285975211
C         1.43502473223406   -2.18154339715462    3.53938125291999
O         0.07385619878186   -2.30005476068150    3.14692839898282
C         3.02634147767398   -3.65636396044922    2.02222747108187
C         2.21634674106714   -4.81407513615910    2.59528618256365
C         6.13608722311198   -0.84070181922923    2.77626412122577
O         6.21423383785389   -0.30829854745627    3.88162069597448
H         3.78631402301853    3.37488589574617    1.04380567866813
H         4.03365360071605    2.76648715798623    2.58605540961829
H         2.39362133206707    3.04281378543436    2.19899237187875
H         2.75059110930996    1.19178242699845    0.27629134290171
H         2.66034553248330    0.66939111777400    1.97712967781697
H         3.66486705952492   -0.98391017353090    0.47391925316851
H         5.26101027006558   -0.15173905132649   -1.05051075813713
H         5.93191845551996   -1.77073715457986   -0.57585883994875
H         6.68706832533811   -0.34355456203724    0.09369638322722
H         4.82991442953073   -4.64764568020570    2.81204924856575
H         3.77348646093444   -0.99378135602276    3.96544778376875
H         2.24411774286062   -1.68551674840433    1.59311629006258
H         1.65615672186582   -1.26286257809224    4.09465883198708
H         1.58647371851065   -3.04211381655047    4.19738765834684
H        -0.28748486091777   -1.46412615183158    2.80698450675168
H         3.05932708718287   -3.78985485548204    0.93370760082183
H         1.19261198045742   -4.45737356455418    2.74306141894956
H         2.75241140724058   -5.03423081517823    3.52608149002564
H         2.11000547523917   -5.67320660677928    1.92615519554098
H         7.00306354517841   -0.91905167639894    2.10133197013054
