37
 energy: -56.175697220987 gnorm: 0.128865601806 xtb: 6.4.1 (79825abcba525fcdf90b791dcacef51065a7a4e7)
C         3.55761232755106    2.75321660550424    0.71222622957391
C         3.02621301498490    1.56384756737311    1.49068966757538
O         4.13455717468652    0.79760406058273    1.96709591393708
C         4.53287909448901   -0.36540117336944    1.21921018329904
C         5.72126764123797   -0.17393609254968    0.26734364238165
C         4.89805435231635   -1.41471047148046    2.29259465448635
O         5.12448873738453   -2.70308238478243    1.68694815555540
C         4.42748599083639   -3.70776924800267    2.45045476061177
O         4.32868540963290   -3.07761006566878    3.74198556549241
C         3.81260700334232   -1.79873980378384    3.31257110169380
C         2.52532104614191   -2.25096661623428    2.57960454212672
C         1.37238316570671   -2.26632419320393    3.58681071462268
O         0.12072512122866   -2.37971803328072    2.92247800740474
C         2.97988882202354   -3.60525325284950    1.96016382427009
C         2.19367869677660   -4.80630172347627    2.47410850503942
C         6.20556238283627   -1.00481085574848    2.99036920160604
O         7.00661923696922   -1.85173439679070    3.38075585873312
H         2.79970613129137    3.47926311485235    0.40175476227978
H         4.03861058041946    2.38967368523687   -0.20207972894114
H         4.37370412369937    3.24518091674600    1.24994717605229
H         2.35130395207838    0.96326859242319    0.87544419980362
H         2.49710412709871    1.88952372474740    2.39226766570520
H         3.64899680590894   -0.66551639299020    0.64428567090216
H         6.70033761495564   -0.33866396777753    0.72802929334879
H         5.77766278837767    0.76015226338420   -0.30075719271771
H         5.66772895304475   -0.89261012941352   -0.55517866315050
H         5.07087476542371   -4.59109903336871    2.41966212530986
H         3.69088254675665   -0.99494384158623    4.04072919852426
H         2.37132372069210   -1.54431213675308    1.75768740183132
H         1.36118499019377   -1.32686661862067    4.15116969535231
H         1.45927863366713   -3.21308449619820    4.12772177794783
H        -0.11374341738856   -1.60726623176193    2.38095370502715
H         2.99714108568483   -3.60511688730632    0.86312885788887
H         2.53210020089690   -4.99598868071326    3.49714131697215
H         2.23897676477740   -5.69666825516142    1.83582230434565
H         1.10543223604975   -4.69745608821351    2.50610684965404
H         6.32299888492877    0.04944931406147    3.28712534417714
