37
 energy: -56.185370939788 gnorm: 0.118088354813 xtb: 6.4.1 (79825abcba525fcdf90b791dcacef51065a7a4e7)
C         3.49814168502789    2.76818299621180    1.87994197542493
C         3.56267343068224    1.59768559371215    0.91621963511594
O         4.13491181442002    0.48400699250430    1.60526390429984
C         4.73529485115823   -0.60491016070991    0.88112701034224
C         6.06265215152511   -0.21537128908447    0.21677906672314
C         4.94509054666149   -1.59188001948302    2.05092760552558
O         5.21771025367744   -2.92951602404433    1.58790408922981
C         4.35169236462604   -3.72995128027396    2.41704054423785
O         4.28690927142701   -3.00956754676492    3.66273890091116
C         3.78975625312018   -1.80266149170385    3.04430579798641
C         2.45062555177853   -2.29617569279395    2.44261912022002
C         1.37987425785946   -2.23691018575083    3.53529708238146
O         0.04043147149269   -2.41021058196062    3.09178388700671
C         2.87166631243040   -3.73505420294658    2.02216193651123
C         2.11376230915598   -4.92663354764801    2.59705591536853
C         6.11900207212553   -1.06933614614331    2.89553631667995
O         5.91738494932384   -0.12836279487622    3.66058075255921
H         3.20271334351910    3.62766070240970    1.27004195324961
H         4.43859594794754    2.85888851536032    2.43383406622518
H         2.68447096977364    2.54142659102821    2.57542743208631
H         4.14172208529964    1.90825021189162    0.04273431336206
H         2.55084034240986    1.31012364189013    0.61230190620323
H         4.02106017570159   -1.00829174630907    0.15379809722331
H         5.83041351147864    0.39707609799368   -0.66010061341108
H         6.61319364091411   -1.12844393667397   -0.03149989673366
H         6.65214467296861    0.47109749156891    0.83091332160788
H         4.89884828495385   -4.66304672853771    2.57554003598320
H         3.76323114067778   -1.08275316786329    3.86415176610887
H         2.09303545722649   -1.62952811723833    1.65120656997584
H         1.41255061591787   -1.27393738497363    4.05762133781147
H         1.60806131416063   -2.97770731837691    4.30707486023411
H        -0.02847670675298   -2.06767554024002    2.18468562380531
H         2.70848193326098   -3.79536549331900    0.93887214228192
H         1.07312369387049   -5.05985466603271    2.28652445409667
H         2.11032067143650   -4.97852221090016    3.69227711037301
H         2.63262787924510   -5.82887393601386    2.25957639822595
H         7.07187356554522   -1.59733190930580    2.73251353496853
