37
 energy: -56.177366790414 gnorm: 0.113755305054 xtb: 6.4.1 (79825abcba525fcdf90b791dcacef51065a7a4e7)
C         3.00718733356609    2.60412956709659    2.02275873090484
C         4.18642444235352    1.69164848823583    1.74032752157395
O         3.61735132587416    0.50292891007183    1.18749811857410
C         4.44345378151864   -0.63520212025412    0.88288841672102
C         5.52017543605081   -0.23726832916816   -0.13558853744148
C         4.88452401750250   -1.60459854159034    2.00194374044301
O         4.97585694414188   -2.92348285285218    1.42732657157943
C         4.37720592602837   -3.77227300348511    2.42698806914152
O         4.60933702584266   -3.07370736845175    3.66514604985306
C         3.97887707750364   -1.85271164300602    3.22024993075127
C         2.60745984239149   -2.22178423008784    2.60230622163432
C         1.39759631370942   -1.96632710970977    3.50504527949340
O         0.24315203775351   -2.26859638248071    2.73255859481993
C         2.86433870642765   -3.70306879597619    2.19704054047330
C         2.13487915462982   -4.81840804651592    2.93777670099832
C         6.29073076229430   -1.26913957114220    2.52590381777557
O         6.55577799340291   -0.36920150553553    3.32040665749875
H         3.14781192576458    3.58543298009633    1.55883394695067
H         2.83322564385316    2.61365918863972    3.10401941998697
H         2.14998093957855    2.16768982476784    1.50132218593925
H         4.63893665398665    1.54193784413518    2.72396554193026
H         4.84492647061661    2.17752827864755    1.01289369788210
H         3.69896705260080   -1.14128979181712    0.25721275207255
H         4.97310834801705    0.42570680804793   -0.81317700832659
H         5.86395059424851   -1.10787863268624   -0.70330006337502
H         6.40325042100914    0.36158107146077    0.10411891753194
H         4.85177521568415   -4.75696358297385    2.44535307670819
H         3.91008247070759   -1.09067880625143    3.99851227548868
H         2.43339847586091   -1.62048209019964    1.70410696289195
H         1.23617170446623   -0.96428485215762    3.91863977465580
H         1.32689708128246   -2.57351432551944    4.41213732400215
H         0.36846207544898   -2.04249763922513    1.79549797469490
H         2.76933332892671   -3.77739501301631    1.10652094768091
H         2.49153575008117   -4.92213665997542    3.96692335814412
H         2.39604629751620   -5.76806854359525    2.45595679761886
H         1.05171878026663   -4.66978669378847    2.98051927238742
H         7.03544306205627   -2.03594385898241    2.25994360303487
