37
 energy: -56.178154271214 gnorm: 0.123794777235 xtb: 6.4.1 (79825abcba525fcdf90b791dcacef51065a7a4e7)
C         3.53248707846756    2.93670337122584    1.54515368274778
C         3.99631824851288    1.70022487779127    0.79751015148276
O         3.98566000929098    0.60921974303110    1.72060982746165
C         4.42112911683961   -0.62609727572496    1.12484717722726
C         5.64951294368882   -0.52459728989385    0.21065512899102
C         4.91956466829162   -1.52013171929894    2.28192178663643
O         5.21847374388621   -2.83931362228413    1.78352948672030
C         4.29352330624113   -3.71574157409319    2.45768940502445
O         4.18863110360894   -3.13309512835840    3.77086674224815
C         3.79579001348066   -1.83075214421248    3.28525220166620
C         2.48748911055108   -2.26718846918373    2.58046408508149
C         1.39905706172321   -2.39463475685344    3.64959411127510
O         0.11066566469226   -2.56804269849344    3.07442347144533
C         2.88871826618255   -3.58818725591276    1.86045830009193
C         2.17577271173815   -4.91340808255572    2.10598084150164
C         6.20325068212151   -0.92522287413311    2.88418248497157
O         6.26495362733645    0.12367323389721    3.52244810956862
H         3.50314142925121    3.84317455073500    0.93244926519336
H         4.03080632890667    3.17131408197899    2.49178661043947
H         2.50079073991966    2.85163098756664    1.89947539499251
H         5.02901393905269    1.84197097750531    0.46861504037138
H         3.34469638067590    1.41707049887166   -0.03560244870175
H         3.69569619353919   -1.14867599576816    0.49040741745690
H         5.32488066001784   -0.04464769097876   -0.71789580322694
H         5.92202772161722   -1.56774525482488    0.02087086247021
H         6.53074366700582   -0.06553086221963    0.66737401694879
H         4.78083089454456   -4.69131035999700    2.53492717712481
H         3.66376894741293   -1.14562702722796    4.12447387608232
H         2.15501906978565   -1.48858832933521    1.88629623167515
H         1.32509387659203   -1.42162669973125    4.14858485862191
H         1.62047531623924   -3.21816228257974    4.33462479795773
H        -0.57283273566966   -2.72143474443171    3.74837203688222
H         2.99237867402648   -3.54096780481707    0.76921670373661
H         1.08461706501930   -4.98591874886729    2.07093880463244
H         2.48226024601034   -5.23211712289088    3.10932708857897
H         2.56145940370904   -5.68561177854724    1.43359787504196
H         7.17301603334737   -1.41075721026192    2.69148682921895
