37
 energy: -56.174422393500 gnorm: 0.126984021091 xtb: 6.4.1 (79825abcba525fcdf90b791dcacef51065a7a4e7)
C         3.85004856866970    2.94840298014992    1.87208297431960
C         3.66869686526769    1.71194358719348    1.01111317278673
O         4.63922612330498    0.77580970916645    1.48465845377253
C         4.55672199493090   -0.53006562237156    0.88594541540301
C         5.72358061107043   -0.66753476733260   -0.10123205283135
C         4.78780973255128   -1.48178777651654    2.08067575846558
O         5.12254085336397   -2.83817966601821    1.72551591798982
C         4.37229370175610   -3.58158440496738    2.70665274340875
O         4.12185286729034   -2.76901316456374    3.86937426654775
C         3.62991352839981   -1.66667273853195    3.07622603174064
C         2.40133639436423   -2.32846004389524    2.40429599098121
C         1.27191411288055   -2.40468787919821    3.43510174928192
O         0.02198167472667   -2.72009886488726    2.83591164798333
C         3.00757036735895   -3.71107672391616    2.02313664264253
C         2.28988008452442   -4.97173851349061    2.49264216445518
C         6.04272127493775   -0.99806248526836    2.82612268936508
O         5.99695076642750   -0.29312386712044    3.83227372763832
H         3.08524923398307    3.66056470085588    1.54671313576439
H         4.85162284139315    3.36630222192121    1.72481668010280
H         3.62054175607752    2.67700084063972    2.90689987750051
H         3.88169620988080    2.12026776756209    0.01983774121750
H         2.65835097068870    1.31049885201639    1.14114148719723
H         3.61097356462546   -0.65088064215362    0.34481801054466
H         5.59134182483150    0.10273803769346   -0.86748088675283
H         5.97408703442871   -1.63769906352003   -0.54221709053595
H         6.57735550144913   -0.27353330195408    0.45709849177467
H         4.88777433091604   -4.49371829250525    3.01883907755892
H         3.34138122288084   -0.87989310364478    3.77540119248941
H         2.10675067901758   -1.89417865053109    1.44344093774329
H         1.16138056890766   -1.46134188393637    3.98199082415681
H         1.57258188743908   -3.12779702096416    4.19877885887986
H        -0.54390614254951   -2.88316531144113    3.60927195536872
H         3.14417870315251   -3.83971453230314    0.94213069565542
H         1.23778958966723   -4.85989157870934    2.21389094054188
H         2.51760427733740   -5.25854734721867    3.52612953002136
H         2.78672885022237   -5.75666658138928    1.91455838022177
H         7.02855604913672   -1.27881533775409    2.42285146878159
