37
 energy: -56.166264589880 gnorm: 0.135590871412 xtb: 6.4.1 (79825abcba525fcdf90b791dcacef51065a7a4e7)
C         4.48128430603973    3.09280118999859    1.82115825742069
C         3.82797284100228    1.80579945348379    1.35233000614089
O         4.86616684756719    0.85792643176171    1.09501939303571
C         4.27429834503005   -0.45269182149975    1.04456090040521
C         4.49242628290194   -1.12753547378675   -0.31631469078303
C         4.72609925094650   -1.32454408717543    2.23716592353837
O         5.33712482695232   -2.60608311230179    1.98759056738419
C         4.57343142923915   -3.58254963396411    2.72341417374986
O         4.19983437704216   -2.82348424963436    3.88924390175597
C         3.57553361328349   -1.73686055270497    3.17109325811495
C         2.47420512061442   -2.36197255148866    2.27937314853623
C         1.27216822300968   -2.43303577059970    3.22490115989992
O         0.25892926174197   -3.19767416373373    2.58496451376143
C         3.21159278869768   -3.71122802214856    2.03401611679660
C         2.49476229290135   -4.95881018572602    2.53847197845824
C         5.92631189725498   -0.57891629585202    2.84380672192254
O         5.95916092140856   -0.12395850625640    3.98543172697594
H         5.13514357725522    3.42526502691611    1.00881982982006
H         5.04232566795228    2.82691978772289    2.72338762511923
H         3.80886091935025    3.92136586048276    2.06303817942233
H         3.29528805469686    2.11144015525130    0.44814251499318
H         3.16811903323472    1.33860501844026    2.09069737902626
H         3.20758894933846   -0.20064899935584    1.06602523324642
H         4.35003940742205   -0.39406547537342   -1.11612235464292
H         3.77678281074799   -1.95572867494997   -0.29655406610800
H         5.55009247697879   -1.39536355385350   -0.39055787808450
H         5.13473415238248   -4.49884014047944    2.92470940255591
H         3.31672132716950   -0.99475667299096    3.92833630694002
H         2.20333644663443   -1.71762351119163    1.43671782682730
H         0.86365170610055   -1.44811739196045    3.47839088421431
H         1.58080038271491   -2.92812299701977    4.15017166265891
H        -0.39259137008277   -3.44678088717293    3.26199668414811
H         3.26285636288377   -4.00071372165922    0.97696670624965
H         1.51737504453467   -4.98354559299165    2.04734193598931
H         2.40067168303939   -5.00162618094001    3.63004309372235
H         3.05608403186937   -5.87315695736872    2.32390377331298
H         6.75754306093421   -0.58449029365621    2.12107320903802
