37
 energy: -56.175961735527 gnorm: 0.125425910909 xtb: 6.4.1 (79825abcba525fcdf90b791dcacef51065a7a4e7)
C         3.42337192491712    1.91799927498966    0.33999648899985
C         3.33838861926889    1.63934516564513    1.82933157090556
O         4.37390415468631    0.75186942141676    2.25666420684524
C         4.69688332518314   -0.35067971507128    1.39026680384428
C         5.97534155433641   -0.03835005006102    0.60098176473974
C         4.97627425575407   -1.49943485527547    2.38468096070031
O         5.17340866468347   -2.68937871469492    1.59527991230819
C         4.22871675853076   -3.57459708146865    2.22939070771201
O         4.14564900205890   -3.25115663779509    3.63060446535097
C         3.83895207090134   -1.86732752244311    3.35276133697878
C         2.50620691687229   -2.00107496964249    2.57510064815911
C         1.37402805581213   -2.30923750568613    3.55855006038512
O         0.07542911197287   -2.40883489903108    2.98884390798078
C         2.80053329357142   -3.29076706243786    1.75382284294652
C         2.01456874930336   -4.59469557729294    1.83636416967468
C         6.32157112098745   -1.21969480666061    3.07490270787139
O         6.55153220269822   -0.72538997146588    4.17678922809263
H         4.38613100599932    2.36341130659393    0.07043955250109
H         2.67393428678014    2.65905434802552    0.04224027255720
H         3.34424115199750    1.03825626416442   -0.30573493690896
H         2.35185074759405    1.23963776530439    2.07772915060351
H         3.43022052027584    2.59194811001377    2.36128889421894
H         3.82807059479000   -0.66811799127734    0.80183446343931
H         5.76005799674627    0.48371965100861   -0.33658998005787
H         6.32640150519530   -1.03533964480387    0.31601036028452
H         6.63897126337823    0.55277014124996    1.23822131068052
H         4.58386059070571   -4.59813820796626    2.08308544318155
H         3.71516620753695   -1.16432602115219    4.17834290919410
H         2.24568497027807   -1.15051752472139    1.93689704105534
H         1.26248540622210   -1.53587395059594    4.32710326975608
H         1.66588900638927   -3.20701016260302    4.11110060714831
H         0.15888947696440   -2.92286877007217    2.16804588304363
H         2.84236308009228   -2.97728713280610    0.70322112173514
H         1.53051704734564   -4.86763538754257    2.77886307806731
H         2.76088465311685   -5.33517336863666    1.52504606325384
H         1.17919472135581   -4.54297930009060    1.13164629511485
H         7.06104411435755   -1.54868345038309    2.32773056889854
