37
 energy: -56.174977984840 gnorm: 0.117096075530 xtb: 6.4.1 (79825abcba525fcdf90b791dcacef51065a7a4e7)
C         2.60494794625491    2.04798132986234    2.27122899534986
C         3.84370959610451    1.31064934428885    1.79709781027839
O         3.48176582783101    0.08585514280328    1.15569725375723
C         4.59954078174843   -0.71641468546602    0.73436975879778
C         5.64233956213229    0.15901608111153    0.02643771577284
C         5.00811065582127   -1.66901712547604    1.87987244448899
O         5.19351678682155   -3.04659732044990    1.49793036937533
C         4.41080933093596   -3.77321786272263    2.46619814323885
O         4.40167386087669   -2.96959999542298    3.66161808558454
C         3.96161600024865   -1.76156931356280    3.00339790500328
C         2.62421024788126   -2.28418059213277    2.42281413282686
C         1.51655403549887   -2.03417251948130    3.44973164384356
O         0.44149117268137   -1.34374059137813    2.82652416148067
C         2.92492115900315   -3.77611213810845    2.09396130717664
C         2.08227310778610   -4.71445965969040    2.95083418164962
C         6.36396171256196   -1.27440164649678    2.48850269920874
O         6.68889886357532   -0.19625364917854    2.98184440504245
H         2.80981555866562    3.12141542105941    2.33227309542045
H         2.38823476622532    1.82748990661956    3.32189406544755
H         1.81831726631353    1.85414517630437    1.53582554215764
H         4.60492827119950    1.11721459938689    2.55726454432839
H         4.35396634172743    2.01455210538279    1.13149806766275
H         4.08227881847241   -1.33330739772119   -0.00976644266953
H         5.07222891919695    0.57264238588505   -0.81131624360751
H         6.38743784223418   -0.57252858803882   -0.30236463790587
H         6.11951693697206    0.88587323230223    0.68967382225983
H         4.79695479336207   -4.76108817223523    2.73109953328725
H         3.98795712142964   -0.83436043488015    3.57847081441849
H         2.33917139172680   -1.72890664540788    1.52334361336547
H         1.91529562664484   -1.38148449134149    4.23472239427893
H         1.07864630221227   -2.89638733348989    3.96091957593683
H         0.83864433098248   -0.78825848003555    2.13470420964299
H         2.85192348784870   -4.07576114331153    1.04102959346563
H         2.37955226553473   -4.64329066820529    4.00138949628694
H         2.17795012436446   -5.77355344848396    2.68366380927096
H         1.02405567724002   -4.51287602603462    2.75928382915987
H         6.90456316988034   -2.23113964745181    2.56415001103904
