37
 energy: -56.182033777768 gnorm: 0.108438758760 xtb: 6.4.1 (79825abcba525fcdf90b791dcacef51065a7a4e7)
C         2.67898475110710    1.70535213039665    2.32271500541493
C         3.68324601803384    1.37603682211535    1.23367873851898
O         3.52085122546091    0.06067592636345    0.69891483538599
C         4.62768754807155   -0.85537737446293    0.61932668299575
C         5.87154514906980   -0.37902084589160   -0.14282739872415
C         5.01834282737712   -1.51259056276065    1.96171874495231
O         5.21716226972718   -2.88898119686166    1.58224270260272
C         4.35767002261887   -3.67762780696734    2.42927308263620
O         4.39713129855193   -2.93934187460097    3.66551362010410
C         3.99778076016576   -1.67095783671409    3.10163071512443
C         2.59905524140490   -2.02948556280013    2.54138165568250
C         1.64590794555971   -1.72896130965043    3.70119255205031
O         0.31277667204507   -2.11041996680513    3.38799249132330
C         2.86466735239766   -3.50798995473495    2.13161836992458
C         2.09487566566193   -4.50089412492742    2.99553098557813
C         6.31997669384360   -0.97988065694875    2.58337273677475
O         6.46731522832784    0.07321056833495    3.20035209322745
H         1.65960995780618    1.67613036142526    1.92524930147386
H         2.85689096637667    2.76054811794181    2.55592942563073
H         2.86978282465966    1.02696159332213    3.15971016249771
H         4.68731212129800    1.61256760698398    1.59510477096419
H         3.51304140227201    2.11562344452640    0.44443474873867
H         4.20109355879287   -1.65417817262836    0.00143502665703
H         5.44092406517903   -0.00141602091359   -1.07552490761983
H         6.51809442965500   -1.24380928784959   -0.32325748208933
H         6.49435026559783    0.38107534504836    0.33703640067579
H         4.82926819420817   -4.66383148280561    2.44216848816037
H         3.95812331665042   -0.92995849905351    3.90192208312818
H         2.18836592442134   -1.45492356278939    1.70481945654777
H         1.62849979207636   -0.63315767829180    3.69031320577063
H         1.98785936801261   -2.20356552113112    4.62548187002152
H         0.14434392405520   -2.05530628238789    2.43222120884997
H         2.62333674118820   -3.67933187211225    1.07512186352209
H         1.01693043495239   -4.34937661368465    2.88515473304496
H         2.43984304840978   -4.54193614641388    4.03549579818333
H         2.36553836816043   -5.46410399602113    2.55267651934643
H         7.14591422255348   -1.67503988769613    2.36451001258263
