37
 energy: -56.168132231792 gnorm: 0.130678430635 xtb: 6.4.1 (79825abcba525fcdf90b791dcacef51065a7a4e7)
C         3.57801080342789    2.92283948146175    1.23673150995600
C         4.17355984076877    1.90385201630552    2.19065770338492
O         5.12544418460165    0.96284551819712    1.68971676466669
C         4.57638417176149   -0.31773289970829    1.33023551289606
C         5.36541799114199   -0.72881908931875    0.07987152998520
C         4.80966443281238   -1.42124012096019    2.38589156401668
O         5.22167081931533   -2.64721649872146    1.74932635805083
C         4.44108096668852   -3.67502509635918    2.39154119155417
O         4.13957396873495   -3.19540412385249    3.71591699277321
C         3.63026921398626   -1.93432493170264    3.22957258422571
C         2.46107150022653   -2.40099317512376    2.32732435776483
C         1.17697863759077   -2.59555842632970    3.13801290113146
O        -0.04752222497675   -2.68070597008012    2.42094138777845
C         3.08142312480250   -3.67705151647913    1.68602093868878
C         2.30340754727903   -4.98035063037777    1.83054150818155
C         5.91560903712420   -0.92641364254533    3.33273784223974
O         5.85169785246199    0.05509298639842    4.07025633892554
H         4.39907565510679    3.51000596302451    0.81359334428053
H         2.83964400015604    3.46958182964194    1.83285686164369
H         3.10038458903997    2.40605888695234    0.39888334764195
H         3.39479254632374    1.34292576340761    2.71373283469969
H         4.78167714696972    2.39475495903639    2.95751604793064
H         3.54409235205760   -0.10058416199537    1.03178049386982
H         4.97997173473647   -0.15598726505645   -0.76938666735045
H         5.65472080120221   -1.74489589184264   -0.20706382971439
H         6.31363124530104   -0.22731022308740    0.29266773381758
H         5.08896218070736   -4.54758845004898    2.51008225383390
H         3.29032808384447   -1.35102615474301    4.08708159730675
H         2.29978506438162   -1.61635237615204    1.58103413389893
H         1.02157157935045   -1.67449083067474    3.71132796219780
H         1.15962119889178   -3.32142162179348    3.95612784161237
H        -0.47636700374503   -3.52340715083858    2.64644689750285
H         3.34236196003993   -3.56223013351863    0.62653502161080
H         2.09564546112958   -5.27864635953184    2.86251097813303
H         2.75956661216433   -5.82070945407356    1.29395066982811
H         1.33962224729654   -4.74238057850026    1.37049825469702
H         6.87883042588273   -1.42270540739760    3.13469945257379
