37
 energy: -56.172825413237 gnorm: 0.124950106920 xtb: 6.4.1 (79825abcba525fcdf90b791dcacef51065a7a4e7)
C         3.84860875824071    2.56843846964237    2.21084605689791
C         3.33013983520354    1.38066500755432    1.42130603701995
O         4.43671165296265    0.74775365249471    0.77520942914845
C         4.50778173237511   -0.68910677556137    0.80612436056487
C         5.57962834235763   -0.98709775580952   -0.25091034319098
C         4.84791321068264   -1.38127228465739    2.14469623699781
O         5.21591729264063   -2.71311447637781    1.73390215762015
C         4.42051988804060   -3.55989658918660    2.58739725713798
O         4.28112204764067   -2.83285524009517    3.82307241293924
C         3.75756705823937   -1.64049169629352    3.19825067842306
C         2.50592358009829   -2.23875268400536    2.50953695764819
C         1.38246325562453   -2.21982681508218    3.54946224428659
O         0.21689449943163   -2.78041334239062    2.95951632049027
C         2.98666268528876   -3.64850837504609    2.05576414219905
C         2.19121706672551   -4.81454747077918    2.63230730691811
C         6.12723573415094   -0.69592667392923    2.65275087847908
O         6.21823398395596    0.19306460100520    3.49701809057482
H         4.13775185292146    3.31969926085476    1.46925225715510
H         4.61505595429482    2.27458209948010    2.93588763460804
H         2.93491929411920    2.97047643203703    2.65885895986176
H         2.65260845593399    1.79946174631220    0.67278425628195
H         2.93240734841023    0.66188904779366    2.14520799861968
H         3.52825273964248   -1.14225473649288    0.61367924005208
H         5.18143270555967   -0.95295390384265   -1.26984066210935
H         6.03634300390695   -1.96788917066964   -0.08387754484778
H         6.25729333466043   -0.12898785554816   -0.23304216678126
H         5.06729471844807   -4.43806050369432    2.66275821097625
H         3.55341081336594   -0.85400979686500    3.92686953553411
H         2.18485946361056   -1.72873311408019    1.59552307120623
H         1.09717803851368   -1.19770928870837    3.82349709868525
H         1.52618814320077   -2.81841503757836    4.45363366920469
H        -0.04872228701562   -2.01211478956470    2.42653329031338
H         3.02448519611166   -3.65986646354637    0.95930446198385
H         1.11155150315481   -4.75585500903535    2.46502354953676
H         2.24019350652620   -4.81745736224666    3.72766414018809
H         2.51325483218311   -5.75058677838074    2.16618101549308
H         7.03183277271537   -0.96012556736027    2.08246745344221
