37
 energy: -56.172317227820 gnorm: 0.123376409989 xtb: 6.4.1 (79825abcba525fcdf90b791dcacef51065a7a4e7)
C         3.83719538279064    2.96648640334919    1.82542460105662
C         3.53869563141419    1.73401264904736    0.99182059945896
O         4.32397793727745    0.71289789826693    1.61083209163256
C         4.61234367346207   -0.51092615779927    0.91106453258964
C         5.79752043977561   -0.57513047618573   -0.06166882384679
C         4.89376903944813   -1.45606753410611    2.10020923953446
O         5.23636668434243   -2.81956835840057    1.78165787330874
C         4.32642419675883   -3.62524822098296    2.55692270269318
O         4.22288894172722   -2.85090864734644    3.76712627419383
C         3.72343129427386   -1.68804273021866    3.07104591730743
C         2.44029880172693   -2.30578813748019    2.46209925573580
C         1.31650034501772   -2.41212162845554    3.49637979648283
O         0.18382221250414   -3.00139194556026    2.87136399587353
C         2.90827415332962   -3.71193360423017    1.98441202428131
C         2.07064640067079   -4.90131083317381    2.44107881966266
C         6.09883159046587   -0.98798779736061    2.93280170910334
O         6.16208434153820   -0.13904688953677    3.81974695704426
H         3.34630990973688    3.88921497250250    1.50052259285869
H         4.91671595965944    3.12556541631841    1.73157708096638
H         3.53846117192960    2.64866506820059    2.82888162322317
H         3.78582637461173    1.94614928312310   -0.05156274368938
H         2.47057825368220    1.51029476745433    1.08092535629975
H         3.72822723244702   -0.74050640100707    0.30485795674175
H         5.70638285214277   -0.04602549989739   -1.01544368172046
H         5.90507451300053   -1.60816218503232   -0.40767126611670
H         6.76428104252678   -0.32586123436735    0.38458283530488
H         4.83617319184807   -4.56333353726832    2.79212635168731
H         3.49764573837690   -0.81741762691286    3.68923032092084
H         2.02802176135702   -1.75087266137812    1.61314692692472
H         0.95753575209533   -1.40054777306123    3.71789680165667
H         1.46479517765863   -2.89590479205610    4.46614946217570
H        -0.58255827962246   -2.79074116678320    3.43100052782346
H         3.01551529178439   -3.76249585387422    0.89366630369966
H         1.07336852463465   -4.93077082124890    1.99199602419169
H         2.12146841257507   -4.87352249070123    3.53600288086114
H         2.69094865341576   -5.76573790434489    2.18584834015191
H         7.03672214683832   -1.51520438977157    2.69674209000981
