37
 energy: -56.171959546734 gnorm: 0.132728632186 xtb: 6.4.1 (79825abcba525fcdf90b791dcacef51065a7a4e7)
C         3.88399166789465    2.53184206431903    2.20111259821712
C         3.24573511584086    1.41303657598278    1.39868370871716
O         4.44987921272065    0.75745896756142    0.99523136275593
C         4.45891166042537   -0.65633685169775    0.72751061670239
C         5.53885574494999   -0.91596605267070   -0.33139901705675
C         4.84985152297423   -1.47293942198756    1.97926278189057
O         5.28470219860224   -2.82663120803769    1.74176363262860
C         4.46468562616209   -3.55163169260650    2.67989900960140
O         4.44335866165263   -2.72023033788599    3.85600739057592
C         3.84097945772377   -1.62634028825124    3.13020665255108
C         2.51529698764594   -2.16734060784220    2.53966550011198
C         1.30669203339303   -2.16630599220838    3.47947339014191
O         0.06679280427771   -2.73433897004466    3.07843424305309
C         3.03373518651895   -3.57837562138631    2.13391558212020
C         2.27467055978697   -4.79890012232369    2.64276110437903
C         6.06690132544931   -0.78980397605975    2.62470839796181
O         6.05848796420649    0.04590863602704    3.52631083895285
H         4.23423325844667    3.32922045090844    1.53818243069416
H         4.56461472724248    2.04926614427634    2.91058486278924
H         3.08480420611728    2.97515018977200    2.80274024755536
H         2.71866745836554    1.88535578046480    0.56571396779287
H         2.57623521288839    0.84178297334197    2.05006935631488
H         3.47317277663993   -0.94905239337230    0.34738996459576
H         5.13950909907263   -1.06277564511123   -1.33982043864552
H         5.99879587333695   -1.87501220080317   -0.07231291381824
H         6.22692700475281   -0.06952098034200   -0.40879665611128
H         4.88669860681522   -4.55286734046670    2.80073377262773
H         3.78322308831892   -0.74365578324241    3.76946503756403
H         2.40956886191725   -1.60799823730567    1.60447504063266
H         1.00542031033467   -1.16967012046848    3.82175876482107
H         1.52819560931522   -2.75749347902623    4.37273941404532
H        -0.09973585089277   -2.30710108802208    2.22132173517710
H         3.14091488480311   -3.60744489659307    1.04237956592938
H         1.30287319646637   -4.92286248195825    2.15557570926234
H         2.00711566992715   -4.82862215542019    3.70565561139364
H         2.85199993218157   -5.69062249272543    2.38070454748295
H         7.02305938234935   -1.16810854957248    2.22978121543151
