37
 energy: -56.170513459337 gnorm: 0.130420303442 xtb: 6.4.1 (79825abcba525fcdf90b791dcacef51065a7a4e7)
C         5.34256475477405    3.19773135042578    1.06857345787975
C         4.39738027619615    2.08659328542898    1.48688885305153
O         5.05008605106970    0.82136628058788    1.36161072656166
C         4.12170719918428   -0.26335709477157    1.18255062819115
C         4.29088140276832   -0.95430466567813   -0.17720953013406
C         4.52842261313725   -1.26690541248610    2.28438117158233
O         5.26615428179596   -2.44743718277612    1.91010973408523
C         4.54295888454105   -3.51574881564487    2.55342110322814
O         4.17994651739456   -2.92711732760437    3.81700685799003
C         3.43420759416682   -1.86305172774721    3.18622899665805
C         2.36569274444825   -2.64495614089861    2.38263973926098
C         1.20720529947075   -2.84053063855648    3.36428291347477
O        -0.09368857069929   -3.11929011924479    2.86347132689130
C         3.18311010933132   -3.90219804781049    1.96359013702164
C         2.86031905352276   -5.32518301046403    2.40597303258482
C         5.44186682176583   -0.43408639164294    3.19899390203868
O         4.88686763437566    0.33723835654316    3.97899861771442
H         5.74285307351564    2.96032789638334    0.07793390090841
H         6.14131898395300    3.35868807361793    1.80039500398024
H         4.70419372131233    4.07742044943303    0.94284345363598
H         3.48131023467023    2.01383723690622    0.89507251692718
H         4.09510145899105    2.19383524570421    2.53378461822574
H         3.08696323957982    0.07460986124909    1.31269867357507
H         4.06838109581354   -0.12499188653909   -0.85594253824774
H         3.78034864080995   -1.90738361291556   -0.34878124046749
H         5.35692691458277   -1.18989199247057   -0.24003700748943
H         5.36934453974903   -4.21024345136218    2.72643195395636
H         3.14789483555511   -1.15370022164574    3.96466617999964
H         2.00141168522208   -2.00407942060450    1.57319558317836
H         1.02312801699930   -1.86277783580151    3.82398064293011
H         1.42052001814922   -3.49998390439868    4.21051508042423
H        -0.10029878129270   -4.04566944924388    2.56905072214949
H         3.09985258513580   -3.92120321842085    0.86974812195430
H         1.84995144895811   -5.59988404811092    2.08847810802101
H         2.96983743408129   -5.55789953487024    3.47183535199626
H         3.42823807679472   -6.02592597348304    1.78663555998437
H         6.53562192651315   -0.53680344001314    3.27942416218740
