37
 energy: -56.178944920144 gnorm: 0.112794975246 xtb: 6.4.1 (79825abcba525fcdf90b791dcacef51065a7a4e7)
C         2.99025922643784    1.72382185104992    2.45857365989478
C         3.88803232354248    1.34968050642147    1.29366551573467
O         3.49418030681735    0.06006566705127    0.82006974457290
C         4.49690980698165   -0.91891836137548    0.49342251308225
C         5.66920436737014   -0.31338793792074   -0.29018102251423
C         4.95593827951191   -1.55831623297030    1.82271570996913
O         5.21959492780832   -2.96469396723366    1.64787512130293
C         4.44556254175191   -3.62026449510700    2.67220514834631
O         4.61308198971943   -2.69316612219846    3.76185638229540
C         4.00222183686976   -1.60907369388846    3.02848312659515
C         2.61938894851909   -2.17323271203191    2.61817593253414
C         1.52748952914134   -1.92615738036836    3.66252995176120
O         0.32673349714736   -1.85310112345156    2.90510556065908
C         2.97605387109033   -3.64102969198959    2.24029617500377
C         2.15242755513097   -4.72164721650305    2.93216926609659
C         6.20241923737466   -0.87648042969081    2.41082235611573
O         6.10301918991858   -0.02344508171208    3.29049481619304
H         1.97855734151030    1.33805005323151    2.29858214436675
H         2.86986130856314    2.80907083528094    2.54352743388271
H         3.48872610690166    1.43114475899376    3.38757818567585
H         4.94704527577457    1.45463731547152    1.54306473060877
H         3.57040294911381    2.10395971053571    0.56631517062517
H         3.97416091599806   -1.64120627915517   -0.14445600292054
H         5.38577780458753   -0.06646232794581   -1.31811180045679
H         6.41041315325757   -1.11558938548234   -0.36449395702781
H         6.15251357878535    0.54077059396765    0.19223696440595
H         4.81718841789493   -4.60435115520974    2.96992391548400
H         3.97938016301626   -0.71009315293864    3.64689338595114
H         2.12796376104534   -1.64372915621296    1.79552729637619
H         1.70399894773131   -0.97283751952879    4.17363919604498
H         1.30930868801965   -2.71107546042719    4.39245555903472
H         0.01164327160401   -0.93709291080449    2.82415522724520
H         2.98783637610079   -3.73253969801482    1.14701191730389
H         1.09519272006717   -4.46972174316647    2.80609607674781
H         2.42058500441657   -4.73632881108315    3.99522607729875
H         2.30958610068175   -5.76439109532504    2.64038507087199
H         7.16451593838054   -1.29902613418993    2.08045117810773
