37
 energy: -56.166521218059 gnorm: 0.137046627033 xtb: 6.4.1 (79825abcba525fcdf90b791dcacef51065a7a4e7)
C         3.89823706090540    3.04440446854883    1.71879607242927
C         3.41002734878992    1.74632555050921    1.10265350378220
O         4.39245395350269    0.75627357895247    1.41434864787065
C         4.48481209179534   -0.58033535431912    0.88944756529527
C         5.58843815252109   -0.60906478128531   -0.17646063966312
C         4.86513747698562   -1.51982988495088    2.05532056460832
O         5.13549822465266   -2.88611767012363    1.68364173714785
C         4.42675175631735   -3.74147340807673    2.60244305556710
O         4.36303981769596   -2.87780814396404    3.75350216525385
C         3.73091778192847   -1.77877066175638    3.06156198758062
C         2.42308907881896   -2.42242441528522    2.53797042828207
C         1.41001326143441   -2.38334533734138    3.68519146114240
O         0.15419589896602   -2.90701320508235    3.27344070550330
C         2.98782678975015   -3.79941218402697    2.08036037141928
C         2.18918515855247   -4.99071822348183    2.59780060050323
C         6.12937282402077   -0.93085689979257    2.70285750114401
O         6.09291812929574    0.05829674534378    3.43197987335400
H         4.88016155507384    3.43829633375665    1.43838324348890
H         3.97782120906280    2.97601860620752    2.80896481974699
H         3.14176283584276    3.79469163565305    1.46980925694541
H         3.35480432964613    1.76386034793935    0.01115577755512
H         2.42186902156706    1.47884954549976    1.49106535780917
H         3.47280244514963   -0.76452948586627    0.51028500954394
H         5.18248970148879   -0.02129210843367   -1.00572158262918
H         5.70899438079747   -1.69223656972343   -0.27963584232782
H         6.54399043435074   -0.25037230033967    0.21617310198035
H         5.10335770750908   -4.54252164687399    2.91178900296981
H         3.65124387971069   -0.95131529886094    3.76873148881488
H         1.95818647380993   -1.98480951346921    1.64859858637587
H         1.29478396246577   -1.32455928867210    3.94384432999673
H         1.77771575540570   -2.92396074444997    4.56212961465706
H        -0.44159731360725   -2.19007952067988    2.99786423377015
H         3.09377121605823   -3.75933293904933    0.98905252627648
H         1.46643457889136   -5.17121261645002    1.79645188331101
H         1.76567639939842   -4.76517734121257    3.58369379603763
H         2.87707977533312   -5.83432418306058    2.70862302105038
H         7.09470354904199   -1.43412057079214    2.53498160010798
