37
 energy: -56.170684824207 gnorm: 0.133175301677 xtb: 6.4.1 (79825abcba525fcdf90b791dcacef51065a7a4e7)
C         3.14997269744236    2.63986448500545    1.58439015331301
C         3.29029262317948    1.13171855596109    1.49060616476396
O         4.60691529549227    0.73572626152016    1.10046049856167
C         4.76580418908541   -0.66736520854109    0.82357924088412
C         6.04217277996453   -0.68295960397611   -0.02825184051839
C         5.01090701022089   -1.55711746617470    2.06245886033178
O         5.15472815785445   -2.91427998922466    1.59833845966764
C         4.29665166149273   -3.63168973804850    2.50783218865188
O         4.43156495180235   -2.85999729962754    3.71663455463163
C         3.87271008193706   -1.68517284984721    3.08917012390383
C         2.50465483761390   -2.06735270660040    2.47174189794721
C         1.50008325082528   -2.09193550349913    3.62681657567685
O         0.21190089386520   -2.39114565133944    3.10537293020608
C         2.88930058228592   -3.47327180492335    1.92413791826974
C         1.95921622012827   -4.61080724400029    2.33124863874695
C         6.18349555856148   -1.06231284613670    2.92541235295113
O         6.11849067943082   -0.21624782684926    3.81497496594450
H         3.94214152326638    3.25395352759316    1.14470723761993
H         3.08196794793346    2.92491988300054    2.63966117723589
H         2.12187431864020    2.84699808336649    1.27248004419183
H         2.52546127824008    0.73308207459138    0.81915527068844
H         3.07474910118018    0.67629799933248    2.46271581277788
H         3.88095225724625   -1.01468088664493    0.27744362048127
H         5.79920712136036   -0.35564739044598   -1.04401705404584
H         6.29731420862407   -1.74743942655950   -0.04327198305349
H         6.89946358259970   -0.13300351305996    0.36987187021766
H         4.66032209117936   -4.64103832257633    2.71789901089903
H         3.89647287578529   -0.83566749615018    3.77392920578751
H         2.29749924529068   -1.38957252233405    1.63728153239633
H         1.44264181798353   -1.20833880719218    4.27269919192550
H         1.92459670585254   -2.85481655985662    4.28582453860323
H        -0.37920936788589   -2.32878259407115    3.87453179591508
H         3.00644904313717   -3.40769445946646    0.83521219328093
H         0.95129423102002   -4.26464255289853    2.08351962446488
H         2.19266491305269   -4.83773861098067    3.37825275369341
H         2.28709581923690   -5.45033523765265    1.71089442737626
H         7.11702740206994   -1.58749974998750    2.66847450774592
