37
 energy: -56.178904804444 gnorm: 0.121064549480 xtb: 6.4.1 (79825abcba525fcdf90b791dcacef51065a7a4e7)
C         2.64454070243800    2.27665153009578    1.61676794939115
C         3.67726461089397    1.43565830105438    2.34423000138105
O         4.82485438374633    0.95630401593519    1.64011632415594
C         4.83566909133530   -0.38630544399049    1.12256664815754
C         5.92508607519006   -0.54078782980852    0.05285539146364
C         5.01581143351933   -1.49629380326344    2.18182684155749
O         5.33739201576244   -2.78391924112078    1.61916418429522
C         4.40954230798847   -3.65580571409206    2.29522617092265
O         4.32591794809447   -3.07824094805412    3.61216956636469
C         3.84507368214657   -1.80412985513929    3.13084571626970
C         2.56630847832025   -2.18014207913418    2.34203095417555
C         1.31592030720535   -2.14719271400099    3.22487281120082
O         0.20748164824594   -2.24819047176090    2.34056110676152
C         2.99845052272961   -3.53653479631160    1.71125119412428
C         2.04595549730059   -4.66681168310027    2.08543078250434
C         6.19141214367474   -1.12368484586030    3.10030934088836
O         6.14572934135199   -0.20393519136412    3.91477056137239
H         2.99705360345821    3.28799141726042    1.39119274826378
H         1.66215823602792    2.34893473919704    2.09549334448642
H         2.39567236631420    1.80842192156302    0.65968690783994
H         3.17301307821452    0.61187864252391    2.85593483328911
H         4.08260282721559    2.10925673683528    3.10635214996831
H         3.85998959775369   -0.49152549270094    0.63386055695101
H         6.04480841871127    0.18101916591439   -0.76115065233861
H         5.79952481678215   -1.56634203109202   -0.30896366814266
H         6.89128531556287   -0.56182550168095    0.56463483638351
H         4.82328476181067   -4.66109907513878    2.41086043584796
H         3.75070147694190   -1.01390818902633    3.87768085665514
H         2.49546971126019   -1.41014496110837    1.56697619471911
H         1.38164634029231   -1.20849082413187    3.78676770179544
H         1.26169797955342   -2.94277073906497    3.97360924123772
H        -0.43737027902822   -2.84728070203937    2.75306897805081
H         3.18628516948841   -3.51913577455787    0.63041872178901
H         1.92954740701181   -4.71071303712985    3.17245802683639
H         2.35693373553872   -5.62536003678413    1.65335283546684
H         1.04152324325080   -4.53276734049264    1.67275706125301
H         7.03576857450407   -1.82848254384576    3.03995555986994
