37
 energy: -56.175685041546 gnorm: 0.120252591391 xtb: 6.4.1 (79825abcba525fcdf90b791dcacef51065a7a4e7)
C         4.32860667445523    2.78580493163689    1.04367220993346
C         3.59106162436947    1.75028683426673    1.87235720743089
O         3.23922357107247    0.58864263351339    1.11782985724366
C         4.10666875703333   -0.53225006114657    0.86940886594189
C         5.20083020558075   -0.29036021058089   -0.17905485244422
C         4.70327360187666   -1.40819608452142    1.99339215303777
O         5.02424496541942   -2.70907848218675    1.46172986190340
C         4.53063761065760   -3.66945049058921    2.41681533087043
O         4.54211079981542   -2.94079975566824    3.65933311807271
C         3.81713397213350   -1.78143680555763    3.19400632973947
C         2.50809574382840   -2.41286365225125    2.65868091120278
C         1.56971022603825   -2.33155713109033    3.86565555585858
O         0.31478569046564   -2.96061290845465    3.64138513873138
C         3.02503153439614   -3.79605014500170    2.16471379646031
C         2.43567549533222   -5.04610012464517    2.80877703211349
C         5.98595304424820   -0.82681864350603    2.61082071056031
O         6.09147370542069    0.28072356939696    3.13387802980932
H         3.82645302409696    2.78321863472394    0.07115337179456
H         5.35900533426813    2.42174226222156    0.97145632570747
H         4.36613389984555    3.79583488155379    1.46273035038569
H         2.54230453401410    1.98871405128086    2.06725555681929
H         4.06639128216667    1.44721468811161    2.81101212123794
H         3.29799466788362   -1.06961513823477    0.36035066549446
H         4.86181021502166    0.27846311827426   -1.05051915417486
H         5.55832548801371   -1.19023435191155   -0.68980301893911
H         6.04981104614689    0.16843821073362    0.33537420336379
H         5.08344692680103   -4.60887893620838    2.50074908836268
H         3.70940976247053   -1.06568170922162    4.01083505333527
H         2.12916461562095   -1.81662500882251    1.82229929070412
H         1.34338891911105   -1.31499304327504    4.20709826553468
H         2.09561954047433   -2.89068782602811    4.64493916292976
H         0.26385030835883   -3.32643611337316    2.74222729760208
H         2.87927105951770   -3.72954026681082    1.07930432832219
H         1.34522710315072   -5.08752029350423    2.88823184744308
H         2.83619597389860   -5.16027810650678    3.82305534251706
H         2.81681232077259   -5.92195094802910    2.27513699687152
H         6.82306331804051   -1.54088933121648    2.55915341669949
