37
 energy: -56.175931257666 gnorm: 0.125974287964 xtb: 6.4.1 (79825abcba525fcdf90b791dcacef51065a7a4e7)
C         2.73595252283187    1.72154975341750    0.90685903914677
C         3.51385688197413    1.52595858605355    2.19511297380574
O         4.77771593389015    0.90121067891143    1.96087117921477
C         4.89046178663565   -0.39659495105585    1.34967261331174
C         5.93490988658304   -0.25830955999878    0.23388515187895
C         5.12651491484984   -1.52803379044175    2.37470073829851
O         5.31067196137093   -2.80140621440826    1.72463037442648
C         4.31793184895383   -3.68619502051089    2.28119731884721
O         4.14492754807454   -3.23001993849183    3.63651566352560
C         3.88169559294016   -1.87580374303822    3.20867178667263
C         2.58196210614940   -2.05899927125783    2.38648770323212
C         1.47256765589755   -2.36046463026490    3.39759036713536
O         0.11413397450594   -2.48425052452016    2.99736668259163
C         2.98384318833341   -3.34693855316524    1.60922643553982
C         1.85376668083919   -4.36978891267268    1.57066185685673
C         6.38074403067087   -1.10799074118119    3.15889318066818
O         6.39206548268040   -0.33166973773139    4.11208307458731
H         3.40895326761053    1.91713140773786    0.06615951452089
H         1.99095338953330    2.52409900689754    0.88764561637282
H         2.16112128153651    0.82800048789897    0.64548329080756
H         2.86735056129307    0.99025007625827    2.89494890346065
H         3.73436858514246    2.47083170918880    2.70251168618079
H         3.96329473697521   -0.49992687436777    0.77387825129610
H         5.79771098659383    0.68912006646471   -0.29667886087505
H         5.87229627210721   -1.01821298437199   -0.55165059356404
H         6.90955471320393   -0.09365455098027    0.70170770891194
H         4.64120591154728   -4.73043898080874    2.29593794898199
H         3.72962890287333   -1.24139408821722    4.08361135946775
H         2.27674394656816   -1.24187151041549    1.72484754795701
H         1.51464764785233   -1.61572268419649    4.20058210619741
H         1.71179007357843   -3.30929671854764    3.88644720174786
H        -0.35510099480900   -1.64602631333850    3.14604275181057
H         3.14425003254792   -3.00819677849197    0.57805861379643
H         1.68920352391480   -4.73645385240267    2.58829744787139
H         2.20740742746962   -5.23831841502924    1.00249947411216
H         0.93614877991134   -4.02076140893936    1.08764132505927
H         7.32743188718058   -1.49050224978130    2.74562906853839
