37
 energy: -56.184165909558 gnorm: 0.120804308253 xtb: 6.4.1 (79825abcba525fcdf90b791dcacef51065a7a4e7)
C         2.89385882617272    2.09883516454945    2.14183713843309
C         4.04559031084112    1.52603104844884    1.33660469117470
O         3.62887975366857    0.31168625821709    0.70872107178401
C         4.59611683455246   -0.74117936561576    0.54592981021593
C         6.00082328579355   -0.36462534107462    0.05604920618124
C         4.86728621047020   -1.52149622902513    1.85135310239491
O         5.09783019247992   -2.90108207494763    1.50267734373409
C         4.36560478035035   -3.62486519263119    2.51170400876433
O         4.49222521932112   -2.82802043191091    3.70498505966926
C         3.91238814327648   -1.68053662715179    3.04672011020711
C         2.49375096693294   -2.17241558943800    2.66674924476431
C         1.57399866326945   -2.09609301982452    3.88830417840338
O         0.23176447921257   -2.22623344188305    3.43850996122061
C         2.90476631585772   -3.54524411516078    2.05778357155692
C         1.97043834286828   -4.67554834739630    2.47518806641043
C         6.14798342925175   -1.03184491635280    2.54744255239001
O         6.18058507852153   -0.17180780846608    3.42530736185916
H         3.23388234290405    3.01998877814589    2.62538434059195
H         2.58671428188401    1.43729348413988    2.95884570243127
H         2.00464983782733    2.29054283292795    1.53377952254126
H         4.90775243524674    1.37043064782731    1.99020190640967
H         4.30841263860586    2.24224470667997    0.55122167531218
H         4.10315434675805   -1.48792793576643   -0.08748143940840
H         5.81081735772481    0.19138238350228   -0.86736712950662
H         6.46211332801232   -1.32545867656144   -0.19385246057196
H         6.59374812816322    0.23115050668381    0.75561548575097
H         4.84414920837510   -4.59911657159280    2.64208152654430
H         4.01091676284665   -0.86158937020524    3.76137843266757
H         2.10200258965233   -1.44521741875041    1.94818153732783
H         1.77065693058436   -1.19511276601354    4.48056012072284
H         1.73867305471463   -2.96111567325765    4.53723316220899
H         0.02382471638861   -1.58459175800298    2.73853649254731
H         2.94092821163346   -3.65399236997708    0.96661469557414
H         2.43410979130078   -5.66619500328944    2.44808858001746
H         1.09730317773132   -4.67978324734139    1.81199065848728
H         1.63329174080335   -4.44829940857608    3.49098416677551
H         7.05915474991663   -1.60632171089413    2.31708783219648
