37
 energy: -56.176667687400 gnorm: 0.125569024500 xtb: 6.4.1 (79825abcba525fcdf90b791dcacef51065a7a4e7)
C         3.37946286800959    2.36237939401965    0.18521130649956
C         3.01041880730985    1.14872668176046    1.01818359630440
O         3.99309516228133    0.65707765620955    1.93204749157832
C         4.86194141589362   -0.32403276936220    1.33782269853587
C         6.17990605440521    0.34066972586063    0.91816100928626
C         5.04943120916815   -1.56410953262611    2.23982845035522
O         5.16048480497860   -2.75758143700560    1.43903240923946
C         4.25053761029527   -3.66909019604865    2.08656522023353
O         4.26333044700606   -3.32658809108024    3.48565157365986
C         3.95471652284634   -1.93455353999081    3.25491338348550
C         2.53923809260918   -2.09153198451464    2.64611721193976
C         1.59225216187675   -2.29133610062571    3.83239789411955
O         0.20460050950208   -2.31588455003420    3.52472235974691
C         2.77989651482819   -3.36560776165798    1.78400039791224
C         1.81289619871719   -4.51088152821340    2.06335915325156
C         6.30195586833742   -1.45563411453363    3.12520933993160
O         6.42074684385493   -1.05502312040636    4.28139826611284
H         3.78500885972322    3.17214733057416    0.79983818965753
H         2.62842403767605    2.68270731700145   -0.54472626326725
H         4.16020813259729    1.99597568325719   -0.48811155272837
H         2.62395692495275    0.33383405781999    0.40067119935636
H         2.21610414852094    1.52132898514940    1.67323764730967
H         4.45990575511422   -0.85455962194536    0.46675218624850
H         6.76371229845787    0.74755690842255    1.74976046011043
H         5.94131988031455    1.16341801193766    0.23654386408469
H         6.83173914458733   -0.37344168508584    0.40722048181491
H         4.53766053100217   -4.71121607974729    1.92315505090542
H         4.08981891197248   -1.42074817536084    4.20826032900810
H         2.04157772165302   -1.21136686280262    2.22627554930076
H         1.79672127165891   -1.42166623551879    4.46727875428340
H         1.83084201721126   -3.16560553340758    4.44494871633233
H        -0.13467243365926   -1.47062263802318    3.18511667431428
H         2.65728860553447   -3.15220740216856    0.71478995687844
H         1.96756519912455   -4.80376698549349    3.10614484588124
H         1.99601320462036   -5.30581129254159    1.33071422957479
H         0.79243749954992   -4.16790826062468    1.86794930389383
H         7.21681215104287   -1.78292865809012    2.60632947760643
