37
 energy: -56.183264120324 gnorm: 0.121244676785 xtb: 6.4.1 (79825abcba525fcdf90b791dcacef51065a7a4e7)
C         4.19642532797933    3.11746158784841    1.73511673064766
C         3.71478171818592    1.70606708218041    1.45409315784455
O         4.82428545846653    0.81173443755940    1.34597572726270
C         4.47092575332061   -0.55276948608952    1.05642337544976
C         5.22737372976744   -0.95644455481292   -0.21629381399816
C         4.82569525805421   -1.45547174468011    2.25884777178511
O         5.25281559909153   -2.78200359685265    1.89025062905808
C         4.36549702804987   -3.65256183483012    2.62028142864124
O         4.13712847123341   -2.98900990500420    3.87824033626566
C         3.67616895663626   -1.78544032540838    3.22618248444215
C         2.45044311312877   -2.33855312998838    2.45773171408478
C         1.27365492895035   -2.50203988747230    3.42334423608194
O         0.05473354930664   -2.82092502753498    2.76502295554834
C         3.00976319374414   -3.68365721654776    1.90792537613961
C         2.28377931769494   -4.99066595605528    2.20702150460762
C         6.01371567216723   -0.81454713676535    2.99526301205353
O         5.92612179326295    0.10517300239360    3.80632126050233
H         4.56191907009365    3.28043111132748    2.75384786686498
H         3.32162146562553    3.77265683005972    1.66500569056935
H         4.97716779701915    3.44546905901179    1.04227416835004
H         3.29115682226929    1.67750577464309    0.44689380395570
H         2.96533550543890    1.32707943874904    2.15663340799504
H         3.40391731494087   -0.62388493377741    0.81498843448488
H         5.77423346720242   -0.10194142316248   -0.62704116780112
H         4.46119762414864   -1.20786458898716   -0.95670058321866
H         5.96616334061135   -1.73397478356516   -0.00289661320915
H         4.94359217784174   -4.50617235665011    2.98404493440555
H         3.41915871500211   -1.02130522387422    3.96181981732722
H         2.08372197306592   -1.63757466216974    1.70091713552134
H         1.07459558745951   -1.58500444157531    3.98958478949885
H         1.42817032820724   -3.31828520498571    4.13493347434380
H        -0.22564519371571   -2.09359949385386    2.18425520450837
H         3.27077809285396   -3.60498521579269    0.84516231632602
H         2.53544983363177   -5.28436526962586    3.23050040382084
H         2.74369990171962   -5.73384140578315    1.54492101332731
H         1.20292679158928   -4.85048235042472    2.11080299867290
H         7.00583423084058   -1.25410020904734    2.80601738020911
