37
 energy: -56.175653725803 gnorm: 0.129532877256 xtb: 6.4.1 (79825abcba525fcdf90b791dcacef51065a7a4e7)
C         3.37467711284607    2.70429123855048    1.22864204050117
C         4.23892704526291    1.92286465777802    2.20097624626314
O         5.11471693415622    0.92721720421876    1.66787493079412
C         4.60238302735571   -0.35597315417868    1.26599053339549
C         5.43907322906815   -0.74710500996492    0.04045328872342
C         4.80323682794424   -1.42353967600133    2.36440606729543
O         5.30793153507417   -2.71037194310137    1.95534815649783
C         4.32458460626711   -3.61057341293021    2.50381601808317
O         3.95926259828934   -3.06954134496209    3.78784798981548
C         3.59348255240442   -1.78241021756786    3.24402699329503
C         2.48091819353797   -2.26152870241660    2.27888439064159
C         1.28776734482815   -2.51957714024124    3.20288004031601
O         0.20160825492924   -2.92949507764665    2.38247179333035
C         3.05779758163402   -3.56099261101048    1.64403425754331
C         2.26409645806657   -4.86258818449312    1.61814190113750
C         5.98535071229226   -0.89154728483091    3.19149443249845
O         5.77708362046506   -0.27965398149841    4.23724044808318
H         3.93184949817705    3.30062687118028    0.49932687385115
H         2.86602808853229    3.42849350883925    1.87384386997979
H         2.58651227991193    2.07141683524638    0.80978084297415
H         3.61950608237869    1.54637722413403    3.01908333894807
H         4.94058170204052    2.65696478590460    2.61041709142010
H         3.52738872252490   -0.35284101245227    1.05097266504740
H         5.66580925729743    0.16266293256807   -0.52422151388049
H         4.78716638952077   -1.40656481453639   -0.54141463726491
H         6.35460535459310   -1.15328609554119    0.47945166200129
H         4.88639068489460   -4.53995898021478    2.62945523693988
H         3.38264067690189   -1.07976864875352    4.05208611094108
H         2.22139738512908   -1.56354321611651    1.47633300310711
H         1.14144712946544   -1.54254690446500    3.67744227315164
H         1.60730410523989   -3.24575840947855    3.95590573616345
H        -0.48245810091095   -3.31887472721960    2.95285987379531
H         3.38056324868452   -3.42584323004434    0.60415909698120
H         1.91983349593412   -5.09164581356626    2.63111870542748
H         2.97325304593810   -5.61600427600848    1.25527156609331
H         1.37716318714454   -4.74551457517077    0.98822542252723
H         7.02390298173333   -1.15265696615134    2.93351967548249
