37
 energy: -56.172583577951 gnorm: 0.135814191453 xtb: 6.4.1 (79825abcba525fcdf90b791dcacef51065a7a4e7)
C         3.57703203924990    2.70337555496344    1.02329389200770
C         3.01661166633408    1.31290197706840    1.25888144620564
O         3.89483829093826    0.47501184827550    2.01331959979461
C         4.66277814465827   -0.47220072360071    1.24936193752887
C         5.88646180045356    0.21892689005621    0.63298780797377
C         5.04293410193586   -1.67708002643880    2.13835265365845
O         4.99436913834328   -2.94580980929373    1.45574839600265
C         4.29657853921258   -3.89779503794059    2.28337346684343
O         4.44319320433072   -3.29155199612016    3.58179076706345
C         3.95545051264718   -1.99294684163696    3.17933011066831
C         2.63414979992392   -2.24974262540202    2.41312219871985
C         1.45250547553145   -1.80819705312326    3.28071662019828
O         0.14639666630517   -1.93867408217985    2.73491492924807
C         2.81505466352317   -3.72100514326621    1.93658154488065
C         2.05945590998059   -4.67520071199847    2.85493021112686
C         6.35143758048267   -1.61070352722088    2.94327318458928
O         6.45480613185559   -0.65256416121519    3.70659304525510
H         3.99803882595217    3.17444912120481    1.91705048562429
H         2.69434218496255    3.31603028942663    0.81118317183154
H         4.39121858197300    2.67755037772264    0.29280648425982
H         2.69452400027290    0.89743535324971    0.30056450841177
H         2.18253939954805    1.39104651526893    1.96392112493448
H         4.13079239189180   -0.87909565860785    0.38144321483191
H         6.37306962878171    0.72974466267588    1.46978084659878
H         5.51160823259306    0.93446924559258   -0.10587887786953
H         6.55644182271040   -0.51870875427587    0.18251901479687
H         4.67335453332336   -4.91260017843891    2.13047092213526
H         4.01769592532127   -1.37118327034922    4.07412315118385
H         2.54483297870693   -1.68386910726541    1.48015211107019
H         1.72292263743803   -0.80640648506336    3.63355823995056
H         1.34520627470238   -2.44952233873313    4.16030710970740
H         0.20099410705845   -1.65491457258722    1.80679558784984
H         2.61731355045380   -4.00752243557531    0.89610585157537
H         2.39565645855080   -4.66915449272141    3.89610215927921
H         2.36580976787725   -5.65892794216645    2.47990780497356
H         0.97450507046014   -4.58577593108988    2.74521917058846
H         7.13268649310120   -2.38012680970101    2.83859278089385
