37
 energy: -56.188103108947 gnorm: 0.113972483946 xtb: 6.4.1 (79825abcba525fcdf90b791dcacef51065a7a4e7)
C         3.12666080273445    2.10874458111454    2.18941704317475
C         4.04409271698463    1.58276109384449    1.10100107750124
O         3.54823548673103    0.33377427201955    0.61450717326935
C         4.46149062687052   -0.77559942678595    0.69085899279933
C         5.67547336120694   -0.55080982202795   -0.22056389263832
C         4.88833413939798   -1.41845814447466    2.02917675942116
O         5.26668630509576   -2.77965887701086    1.74288214212941
C         4.41032541854516   -3.57917004164497    2.58286951890439
O         4.34290943352630   -2.77507073625025    3.77609764855301
C         3.79880562120717   -1.62311780792970    3.09551087975860
C         2.51178760088659   -2.19306122114609    2.44928852040010
C         1.53966780522295   -2.06545519374360    3.62515659097932
O         0.24902577197361   -2.60201234001324    3.36593940810147
C         2.97431882750248   -3.62568458201547    2.05168802881047
C         2.28119154316072   -4.77642592493682    2.77290357741469
C         6.12523946515103   -0.76337365037843    2.66589786376314
O         6.09460183579518    0.11877427551319    3.52161374665915
H         3.04493088722321    1.37071756739948    2.99352786659883
H         2.13528272412391    2.30322718193084    1.76654095878697
H         3.60816238155810    2.93182879169862    2.72594955026856
H         5.02805909503731    1.40553507791310    1.54273113203019
H         4.06725542672726    2.25441166934360    0.23658621580370
H         3.89178131593414   -1.58598242396595    0.22121450013463
H         5.39321541582328   -0.22135034493027   -1.22541784449515
H         6.22124480951976   -1.49447737828962   -0.32088888162104
H         6.34223409110158    0.19853797714775    0.21510767062380
H         4.81275768414172   -4.56225257513277    2.84126035209267
H         3.60936957543942   -0.91434315711658    3.90351551018850
H         2.10457432131162   -1.56060728595304    1.65379943453009
H         1.52104068721727   -1.00862820473092    3.91494400771494
H         1.90449528906966   -2.66900079442481    4.46129311888124
H        -0.29280159673028   -1.99463463212235    2.83450618046045
H         3.07861913178113   -3.80691390837368    0.97462685873417
H         1.23925200316156   -4.84173998643377    2.44548570605753
H         2.42506744849396   -4.64367805959810    3.85174160185306
H         2.74881062634061   -5.68892835211916    2.39103534850695
H         7.10766922943944   -1.09684752884648    2.29583439344033
