37
 energy: -56.175836872726 gnorm: 0.127409733476 xtb: 6.4.1 (79825abcba525fcdf90b791dcacef51065a7a4e7)
C         3.59073685589666    2.76622028824010    1.18950697063968
C         4.11539351700959    1.75133841864427    2.18837606604377
O         5.05901779569782    0.91633191394408    1.51394577272497
C         4.71880618417356   -0.43981127835105    1.17378924878614
C         5.55074220213938   -0.80493517111115   -0.06295782808676
C         4.88531463863143   -1.43864655106054    2.34047712367633
O         5.25964512795258   -2.74743494561604    1.86620690290020
C         4.30685946398029   -3.62656074672808    2.49667357588887
O         4.08516891008604   -2.98564449006240    3.76749758440786
C         3.62833217536600   -1.75276375002818    3.16954422630555
C         2.35421502954447   -2.29205607284450    2.47338065872136
C         1.22837959138029   -2.58028637974115    3.47006711403715
O        -0.01726070731047   -2.92497638187746    2.87811013156388
C         2.98891682203997   -3.50163792186121    1.72605443465862
C         2.14673581789097   -4.76652244034089    1.60122927605203
C         5.98574394839030   -0.71911017209795    3.13785239727953
O         5.85978184436276   -0.28772266065572    4.28214772551909
H         4.35643534230121    3.26122344843730    0.58400257354694
H         3.06082882771313    3.60079694156852    1.66084279358843
H         2.89680047128561    2.23520928791625    0.53097972160602
H         3.27355979602970    1.14978803230672    2.54076430910199
H         4.51340875932985    2.24663202596887    3.08007791760605
H         3.67178574871098   -0.29044447828840    0.88518375387549
H         5.35735003972388    0.01110487124161   -0.76625201987999
H         5.10196132208487   -1.67263172201206   -0.55706155994562
H         6.63110725646302   -0.87677978597182    0.09050701077142
H         4.90670951388603   -4.54010309402681    2.52476543761856
H         3.47962618540715   -1.07684532104212    4.01342807565273
H         1.99290254736665   -1.52555644771243    1.78015975965975
H         1.01492325395655   -1.66822167806051    4.03908504155956
H         1.50088980294298   -3.34964413795276    4.19829615537710
H         0.13739027328973   -3.63980503266024    2.23779073226712
H         3.21272924321043   -3.17288986576544    0.70350069793751
H         2.01779617095834   -5.25676856553692    2.57083729674002
H         2.77438303735860   -5.48944116449518    1.06675639980717
H         1.17625245987582   -4.51930920441804    1.16054876311798
H         6.94725487706840   -0.57584908509754    2.61988216414135
