37
 energy: -56.180663574070 gnorm: 0.131785631159 xtb: 6.4.1 (79825abcba525fcdf90b791dcacef51065a7a4e7)
C         2.88163946406182    2.40532654079100    1.70080558070797
C         3.20332946162933    1.15001400709610    0.91106178914627
O         4.22706275787782    0.47387508800069    1.64408642025329
C         4.79654556260826   -0.68482694518671    1.00873333333152
C         6.01311083523048   -0.28122607511827    0.16490194381279
C         5.14037066309008   -1.60923542073809    2.19777096327520
O         5.34864301168837   -2.97232684348494    1.77754862947842
C         4.25667442358317   -3.66090708662960    2.41911913417043
O         4.26404583842802   -3.05602079693476    3.72639577386431
C         3.99335808957050   -1.73251626142432    3.21521405817352
C         2.64120257627934   -2.01297085569672    2.51387612651651
C         1.51066046131879   -2.02667060014565    3.54618070239633
O         0.23733107854174   -2.10567591901362    2.91909664641993
C         2.87781197730816   -3.38288017634685    1.81259486830327
C         1.95780607961587   -4.52367964163970    2.23324751453512
C         6.42015455466336   -1.25673043250235    2.97390091797286
O         6.41355698365935   -0.36070203680245    3.81560329983425
H         1.88767228534817    2.76669511282067    1.41902575089804
H         3.66803609229324    3.16439497546109    1.63099429651310
H         2.75074527371334    2.12922717742658    2.75143128651164
H         3.55107598257689    1.44669729667782   -0.08180059847120
H         2.33486769136099    0.49858079026928    0.76867857009702
H         4.03556445031492   -1.21170770597995    0.42123043484418
H         5.67380367919469    0.25943214357479   -0.72420092242826
H         6.65892685895285   -1.08546617116018   -0.20192166982683
H         6.75568800723260    0.29664701289332    0.72216628281142
H         4.60796463852138   -4.67302502340091    2.63679155105538
H         4.07632720697604   -0.90132626777254    3.91760877250340
H         2.27883375605274   -1.24744682177193    1.82012883562360
H         1.57951783150017   -1.07426433746723    4.08412862739303
H         1.66920578258186   -2.84046425828414    4.25968889037398
H        -0.38876156558902   -2.34732729019914    3.62231671746245
H         3.00600679954616   -3.29152055065023    0.72677587733453
H         0.87839785293952   -4.36256583969519    2.15561626960739
H         2.13245108520995   -4.86677178704590    3.25989285287766
H         2.06234364626241   -5.41804667030369    1.61169209468064
H         7.25033677861091   -1.79049845113199    2.48481070724863
