37
 energy: -56.168406466684 gnorm: 0.133419850467 xtb: 6.4.1 (79825abcba525fcdf90b791dcacef51065a7a4e7)
C         3.42283130186350    1.89534198346564    0.14783935871713
C         2.99415205932861    1.11868428942209    1.37910951535323
O         4.02308868617835    0.58116450933663    2.21270456954903
C         4.65328203186652   -0.48048033455522    1.47355562279510
C         5.89893688593345   -0.06585940261850    0.67894275678185
C         5.09452829129952   -1.55854009479735    2.48827039719048
O         5.27384178758767   -2.80302594353702    1.78322853414889
C         4.20645591731822   -3.67859621592621    2.19821643011771
O         4.20410357704468   -3.42210566941385    3.61565109676385
C         3.99319171200939   -2.00098907290517    3.46669926681205
C         2.63903051050562   -2.06543449055446    2.71773435984097
C         1.64323325664506   -2.49658844508140    3.79776213268820
O         0.28725129875415   -2.29391098049691    3.42215762559291
C         2.88150224475472   -3.15667287593697    1.63383528202489
C         1.70699662818844   -4.10407327544062    1.41531306422397
C         6.40755874831968   -1.18414357749621    3.19556276108822
O         6.58955413800709   -0.13079334301117    3.80277297999256
H         4.34655033732216    2.46482240237616    0.29064364752248
H         2.64784461427038    2.57412317411889   -0.22381893770809
H         3.63028530658034    1.16380076578870   -0.63891905620671
H         2.22281345964863    0.40782946814614    1.07178798251500
H         2.57975828920792    1.92067699849368    1.99874615430691
H         3.91023956087415   -0.86972664908148    0.76770122726079
H         6.45118994426385    0.54898755787937    1.39652504605262
H         5.79996888756197    0.57965241755216   -0.19966970384690
H         6.52443423307854   -0.91894070041003    0.40162150608622
H         4.55309084480137   -4.68863587906749    1.96405213797822
H         3.93015424194331   -1.44177352178920    4.40180527289080
H         2.28058344014929   -1.17049123131833    2.19887429104342
H         1.76098816045461   -1.95468694978229    4.74311050542540
H         1.71332000240500   -3.56153524817040    4.03748452503737
H         0.29098649799788   -1.34441037138215    3.21397382475289
H         3.22468914592394   -2.60305629141098    0.75093392324733
H         1.95563603674881   -4.99594927711437    1.99827278306947
H         1.61794606539041   -4.35720346591943    0.35220025079787
H         0.84853042113028   -3.59696087762639    1.86589537025066
H         7.08447746094514   -2.03042448082030    3.39281823291051
