37
 energy: -56.173713688782 gnorm: 0.125579074371 xtb: 6.4.1 (79825abcba525fcdf90b791dcacef51065a7a4e7)
C         3.49685935307779    2.91850037001232    1.04491470109831
C         3.15257862158880    1.44168498102597    1.10387527589199
O         4.23829032539879    0.76522952640234    1.74117968959079
C         4.57890065838822   -0.52580743730334    1.20472582388495
C         5.79335769469479   -0.46461392228158    0.26860318034791
C         4.92687665091652   -1.47021373561518    2.37671841501019
O         5.22314389280505   -2.74551083709186    1.77353899420511
C         4.35842004550572   -3.66430523152422    2.47083404029392
O         4.24884344071754   -3.16977906882119    3.81929642843007
C         3.81068705226519   -1.87414492856271    3.35497542527826
C         2.49236187150756   -2.21701175175341    2.61787621429868
C         1.37141411982153   -2.21372765364560    3.66067592278680
O         0.10958900106878   -2.32056515352866    3.01474474548146
C         2.90795634303459   -3.57801977510147    1.98591945724683
C         2.09082429484859   -4.80896599316227    2.36254863756951
C         6.15214254750376   -0.96171930684033    3.15430515036452
O         7.30906405239983   -1.19492784115006    2.81003823825301
H         2.55086815453103    3.46057035462599    1.14092851920548
H         4.11652384127169    3.17025888463950    0.17767094496958
H         4.09202399830190    3.22435066454052    1.91060122777026
H         2.90684528398015    1.06318851107573    0.10834532492802
H         2.20636080012807    1.50341074749583    1.65134748976956
H         3.71478907733155   -0.98290500313355    0.70851192941986
H         6.41063989300371    0.35237513351863    0.65517288328442
H         5.43391096110917   -0.24584080579110   -0.74202850846209
H         6.34835279269651   -1.40661735423007    0.24598272765650
H         4.74747017738582   -4.68470075759770    2.41982644377016
H         3.58694215288510   -1.26020735192121    4.22912521893209
H         2.21636622136340   -1.54812007675130    1.79627178803010
H         1.35953804024388   -1.20592294043702    4.09125182950728
H         1.50797742181774   -3.03440394234989    4.37083897577260
H        -0.16054830880300   -1.59546762906242    2.42638663631282
H         2.96398468714025   -3.63106658802088    0.89146514890519
H         2.06847640623721   -4.94213479550293    3.44830783267878
H         2.47636166254795   -5.64526587168931    1.76742075081302
H         1.08456120819036   -4.59326998803272    1.99098241057514
H         5.96684893009185   -0.56267930994601    4.16413354759398
