37
 energy: -56.174806321228 gnorm: 0.121929554639 xtb: 6.4.1 (79825abcba525fcdf90b791dcacef51065a7a4e7)
C         3.03197600502468    2.59381398537237    1.37087069102448
C         3.56502632744174    1.52185777152937    2.30347805634163
O         4.78749534817504    1.02740753072382    1.75247237405488
C         4.70902390815337   -0.28842139538529    1.17540125465069
C         5.84431399394652   -0.20848450519042    0.14598264551564
C         4.90455578536578   -1.44840840748730    2.17677762532457
O         4.98807147929061   -2.65572211188641    1.39357830524323
C         4.42928271808524   -3.66871790440761    2.25366290115541
O         4.46359589147919   -3.08860363479164    3.57169325598833
C         3.81401476297488   -1.85918527386028    3.18077419160145
C         2.53975818208014   -2.29615768097386    2.41645783322323
C         1.21665480077437   -2.21829064976678    3.18281288063281
O         0.11089038664713   -2.26702066663302    2.29076220111162
C         2.94072886394148   -3.70717761160864    1.89427372897024
C         2.21939384384136   -4.91679313334720    2.47847318597970
C         6.19837186458316   -1.26179445088125    2.98653035846981
O         6.22341659483917   -0.74390680261889    4.10122245460101
H         3.85167256213230    3.25428185319694    1.07114144653049
H         2.29361024945070    3.08814467704534    2.01112949815445
H         2.58440624265228    2.20273905431492    0.45221938236516
H         2.85630940944749    0.72302618402736    2.53652904320070
H         3.93582343696776    2.13324483124841    3.13268215249796
H         3.78235663442527   -0.40053541736822    0.60044607617631
H         5.44681741690968    0.32345616974807   -0.72406342161326
H         6.26097721818932   -1.16114378989841   -0.19646747030476
H         6.69191803019272    0.35652460237869    0.54376879351674
H         4.93418836062317   -4.63535385119670    2.17715109793901
H         3.61973658897846   -1.24700705283171    4.06316459749667
H         2.36820235221036   -1.67698904110414    1.52999163755827
H         1.23241786707639   -1.16908554521663    3.49924166279881
H         1.14246836376047   -2.87535400530178    4.05416515560477
H         0.10115139649091   -2.99181677489811    1.64308820555366
H         2.85223836234034   -3.57196309154757    0.80906874830704
H         2.21057068137724   -5.01216745383846    3.56839624756035
H         2.59770317416029   -5.87568520904639    2.10481319481609
H         1.14602418181030   -4.92654378480240    2.26649648913992
H         7.06854342467783   -1.83375613184452    2.62739061641969
