37
 energy: -56.180310589865 gnorm: 0.114318633035 xtb: 6.4.1 (79825abcba525fcdf90b791dcacef51065a7a4e7)
C         3.40610302069988    2.46554975969360    1.11074030651766
C         3.42755845242696    1.16809298899484    1.89759153271373
O         3.28110692754188   -0.00905380246335    1.10047411283109
C         4.42081389848188   -0.76390767835811    0.65121000205363
C         5.47008775048346    0.14167044539939   -0.00752270527903
C         4.96135412546888   -1.56065810119344    1.85933343049930
O         5.16318430123899   -2.94147023308194    1.49794054305811
C         4.49286380945909   -3.67970868791054    2.53900983799171
O         4.66683101698983   -2.80090786467288    3.66699853140375
C         3.97551060194944   -1.70348687191802    3.03139951717133
C         2.59202014015207   -2.31997303927250    2.70774362737101
C         1.71200846477865   -2.19878962066934    3.95468384673542
O         0.32040364182713   -2.27984653767604    3.67591914298668
C         2.98942520520513   -3.75598161636968    2.25566008166779
C         2.09949725099990   -4.88795027867513    2.75711605642017
C         6.23774484329512   -0.85146715570577    2.34136992463871
O         6.25278166376313    0.05357382254129    3.17326416188187
H         2.96359608299862    2.32175766639826    0.12004897639092
H         4.44025270338353    2.76340499537970    0.90752895865554
H         2.83468890069096    3.17951145346910    1.71150908303176
H         2.60945124869431    1.10786062229285    2.61994670957966
H         4.38982733306229    1.01021666011961    2.39556515439676
H         4.15793927207944   -1.46711769190808   -0.14769415467319
H         5.01086536698308    0.60303901109174   -0.88740815846882
H         6.34308382539415   -0.47377878652453   -0.24739795292339
H         5.87303359557401    0.86466955304335    0.70718607789099
H         4.96893908438383   -4.66359154148162    2.56127356262826
H         3.95593897949123   -0.82421848897531    3.67763714191012
H         2.13489955499231   -1.68949285350367    1.93822493555812
H         1.93279933606953   -1.21166588969404    4.37663778388477
H         1.94167892502106   -2.94840109558481    4.71745824559159
H         0.24513476945752   -1.66359543911709    2.92793850581447
H         2.84633609047212   -3.72519421340244    1.16829582728482
H         1.12717602042305   -4.92990403329159    2.25717836731868
H         1.89891019123692   -4.87732964194239    3.83501483650863
H         2.55035158883286   -5.86574328048010    2.56268654194540
H         7.19209174460255   -1.23995356352637    1.95198535958397
