37
 energy: -56.176569105810 gnorm: 0.117769341573 xtb: 6.4.1 (79825abcba525fcdf90b791dcacef51065a7a4e7)
C         3.84377881940211    2.62930587372567    1.05668654080527
C         3.04914409666188    1.33775254294658    1.11529468532754
O         3.74301659556058    0.36935892307132    1.90477144654855
C         4.52805463648146   -0.59684565597369    1.18314925867648
C         5.67341730112344    0.03975779303276    0.38449004192415
C         5.02983866224926   -1.58517945383549    2.25923767561123
O         5.27591873233974   -2.85471169314405    1.62228016569766
C         4.44212265625684   -3.78110407149019    2.34666412043350
O         4.39125451831877   -3.26670099175891    3.69117736711514
C         3.95212350797162   -1.94905092512178    3.29468638172923
C         2.60689468687100   -2.26304454415521    2.59424251806541
C         1.36661854894808   -2.17886854893052    3.48788414835771
O         0.16767298462799   -2.14696144081952    2.72476198862601
C         2.98229196820253   -3.61256750024641    1.91431927464795
C         2.07487260528223   -4.77001334191251    2.31642887996010
C         6.28737649279744   -1.07172733565270    2.97996629655710
O         6.28879752285724   -0.19229568804276    3.83901882253961
H         3.59494873893684    3.48048258997193    0.41517297441618
H         4.87474268885746    2.38260081986243    0.78149882911873
H         4.01882391142843    2.90492867822106    2.10099004362685
H         2.87887566942269    0.90693090557343    0.12528169745291
H         2.17490441220934    1.48210371843177    1.75851453675433
H         3.86228430049569   -1.21689744521507    0.57147869144208
H         5.23257847155273    0.66564740647327   -0.39772979905403
H         6.17972768492254   -0.79310330893571   -0.11393970998037
H         6.31368562860871    0.61942975480972    1.05526466443416
H         4.88626263939094   -4.77985997080750    2.36654212547736
H         3.94846164769173   -1.16929448954341    4.05828673148616
H         2.47541423684596   -1.56259455125053    1.76315515404652
H         1.44230732641369   -1.27803392454901    4.10754145276227
H         1.29302639817857   -3.03751053904134    4.16153746469055
H        -0.54028810597583   -2.03067280721835    3.38063842487705
H         2.97905204095214   -3.44450061264080    0.83010232339115
H         0.99760906575094   -4.58059598171340    2.34346061618925
H         2.55592585017719   -5.03784822811355    3.26461979011211
H         2.12275458792936   -5.66893683428953    1.69450003147916
H         7.24173573346809   -1.55285684525702    2.71344638853381
