37
 energy: -56.173001583949 gnorm: 0.128532527214 xtb: 6.4.1 (79825abcba525fcdf90b791dcacef51065a7a4e7)
C         3.63113534271234    2.78735444067396    1.34391974704558
C         3.99321945369800    1.78353548220886    2.42291552212722
O         4.97821790811470    0.99290989334915    1.75417933662630
C         4.64041026223018   -0.29811124573323    1.21591807710968
C         5.42008091906653   -0.66979734744372   -0.05252168949005
C         4.86525035606414   -1.39160539276317    2.28375471143339
O         5.24448786858499   -2.66917087567519    1.73422039415583
C         4.35263718477858   -3.59584766051004    2.38539120410930
O         4.09758901978735   -3.04668388897870    3.69240444009789
C         3.65735213514223   -1.78129639183672    3.15274814558186
C         2.44275157306149   -2.26593141957885    2.32285129215308
C         1.21886416957976   -2.53456637436600    3.20256767576889
O         0.16525813147183   -2.80182970048902    2.28641886414447
C         2.98443246858254   -3.58461387561319    1.69668078325357
C         2.32086214482698   -4.94044393916836    1.91158145098347
C         5.91932408788101   -0.98939366353216    3.32856995587471
O         5.98545827839135    0.00376217752564    4.05012465881591
H         4.51852174333351    3.03397958063336    0.75258287969281
H         3.07100053528281    3.68346632078809    1.63151436111731
H         2.91053374399454    2.32421728360559    0.66317321938241
H         3.13937056616385    1.19797914849174    2.77332986705936
H         4.60469409149345    2.25968017211967    3.19638115154427
H         3.60701846597343   -0.18356475052524    0.86830352856753
H         5.12823640236858   -0.06879965150282   -0.91945487893617
H         5.33175161670586   -1.72496274225555   -0.33048572970333
H         6.47300467479207   -0.48951314972883    0.18146746065661
H         4.85044830775236   -4.56434315985484    2.48218692958424
H         3.37609064730009   -1.15463305745289    4.00086617439371
H         2.14537787374725   -1.51396256737671    1.58478941228139
H         0.90456438288015   -1.61613647313792    3.71139887765464
H         1.26694811080776   -3.30588361534567    3.97667901472304
H        -0.30968030836474   -3.61794623823920    2.51727192137778
H         3.16732587937287   -3.50313675498716    0.61793386252818
H         2.00478847828039   -5.11270770252289    2.94479442539435
H         2.99716065554988   -5.78142930481587    1.71773171924013
H         1.37741287244898   -5.08383783842538    1.37633074769806
H         6.72263966425269   -1.73362084804809    3.44744026362121
