37
 energy: -56.179897116637 gnorm: 0.113725070284 xtb: 6.4.1 (79825abcba525fcdf90b791dcacef51065a7a4e7)
C         2.79852770917087    2.37464704233284    1.98610736872861
C         3.96976956594374    1.54243743925390    1.49763122154762
O         3.55117397517192    0.21891410215928    1.15765696612915
C         4.52114635229135   -0.79023041053694    0.82395725920429
C         5.72884527322664   -0.42043713526601   -0.04764606818166
C         5.02512835769127   -1.56833011108562    2.05972428833938
O         5.23052366485053   -2.91389526334233    1.58511963832770
C         4.34103011771171   -3.74197130130895    2.36051770321717
O         4.45828219081427   -3.11423968885381    3.65168730681596
C         4.01221606086288   -1.82053789321429    3.18951468996606
C         2.60312595669084   -2.15668858991195    2.64149827875350
C         1.51220022091558   -2.17142372849335    3.71556987583220
O         0.19947079444132   -1.80071650845168    3.31536796169844
C         2.87067013783665   -3.54105387539241    1.98090473489149
C         1.96478545340175   -4.68327838692327    2.42753548462442
C         6.24471682823485   -1.04948236649215    2.83939422623122
O         6.60516116740188    0.12540886080390    2.80647340078358
H         3.06782317303474    3.42372140521343    1.82837087282594
H         2.77003334603179    2.19374065087419    3.06589397193077
H         1.83535274180259    2.08604705354164    1.55461861260430
H         4.75277769844011    1.36803716532098    2.24006447966266
H         4.49527786056897    1.98091639574685    0.64297263849159
H         3.99883624264875   -1.57023111051961    0.25770086410058
H         5.42564854078759    0.09681033241310   -0.96332688174096
H         6.33473548703760   -1.30619960995580   -0.26389110979149
H         6.27018188469456    0.29542464951812    0.57717253766899
H         4.82141430258990   -4.72400731739502    2.35825737046652
H         4.12551395801109   -1.10074280706749    4.00202784533400
H         2.22135042829731   -1.46268604782910    1.88569973887429
H         1.91322462073466   -1.52958011808463    4.50830135909023
H         1.46037107467308   -3.13867287392937    4.22373667747423
H         0.07148896947242   -2.11019427030821    2.40281658291344
H         2.81150326809038   -3.42250135298153    0.89176380778524
H         2.24802545033715   -4.93960458271818    3.45280538895144
H         2.14381492302841   -5.58779742012281    1.83423326908596
H         0.92755299162011   -4.33516529394652    2.41668555381391
H         6.85989841630105   -1.68004010439017    3.50065709690438
