37
 energy: -56.177975924526 gnorm: 0.130808384222 xtb: 6.4.1 (79825abcba525fcdf90b791dcacef51065a7a4e7)
C         2.73463897499852    1.88511480819029    1.30652319909777
C         3.73190519247430    1.46702393914880    2.37125292123515
O         4.93771308169567    0.87974573484301    1.87764330459849
C         4.74899591399325   -0.38504478544638    1.21789685403422
C         5.83137153436805   -0.44871960474291    0.13190206308812
C         4.97530589437003   -1.47905112058760    2.28489784967950
O         5.29231068269356   -2.74695486278159    1.67669519956754
C         4.40818489293660   -3.67815619161948    2.33193296605801
O         4.25554472751512   -3.14164999907631    3.66000527387431
C         3.81062673285986   -1.83882515530956    3.22304044974238
C         2.56916861226089   -2.21016355861447    2.37466333393141
C         1.29294008718385   -2.04280205590485    3.20363665073384
O         0.23606569259819   -1.85382594353886    2.27189177459184
C         3.00226585323202   -3.56207582382635    1.73498297665519
C         2.11660202504605   -4.75551949473874    2.07568035760400
C         6.14903131708122   -1.14459099610274    3.22030649393227
O         6.14877094877821   -0.18699840194872    3.99127320257033
H         3.03756660204215    2.07690567669769    0.27240087396770
H         2.43046291486777    2.90371174781531    1.56999114783489
H         1.82169541316789    1.28256805696492    1.28102839565365
H         3.19668985234611    0.76024082749048    3.01057014342955
H         4.06851332453323    2.34557802770469    2.93134375555738
H         3.79769805225002   -0.40818663251560    0.67351457417446
H         5.38986491856854    0.11859745046467   -0.69342686271081
H         6.01199110237630   -1.48509135582209   -0.17100090214593
H         6.72891108851940    0.07747663910791    0.46871354384818
H         4.89947761182919   -4.65460830782710    2.35041375055218
H         3.65476537407141   -1.16816856978003    4.06982612843916
H         2.57004359077418   -1.45445589508825    1.58249625588177
H         1.21836404209131   -1.03429549718498    3.62620017004783
H         1.19804759800084   -2.88478929370444    3.89540509002866
H         0.14481975439447   -2.51922237329278    1.56916307779329
H         3.05476088456847   -3.47119945635112    0.64284327324154
H         1.95911280054153   -4.97031093034692    3.13689106687536
H         2.59219914892386   -5.63023177932383    1.61644235185694
H         1.14913469957618   -4.73459538547927    1.56507211197092
H         6.99162459913187   -1.85213467101917    3.16797525780882
