37
 energy: -56.181411747815 gnorm: 0.123456214133 xtb: 6.4.1 (79825abcba525fcdf90b791dcacef51065a7a4e7)
C         2.90914953159254    2.51315661469687    1.73383197776919
C         4.02743294298948    1.49214326958693    1.83364793284745
O         3.54654003856929    0.32443255462039    1.16453471371223
C         4.49884946469725   -0.67879532381718    0.76803104123207
C         5.68794338639812   -0.19117755852080   -0.07057535580138
C         4.92589199610325   -1.59690057687187    1.93476777673519
O         5.09301581961440   -2.97957151528237    1.56291686481095
C         4.41247372026623   -3.75725688701906    2.56801326644551
O         4.54133828311166   -2.93289725179574    3.74221047736294
C         3.97468536923969   -1.75190424657426    3.13360316313543
C         2.62826647187636   -2.23482081898957    2.53963180726469
C         1.49738097521302   -1.92749877289544    3.52483080166767
O         0.24596998437423   -2.48868715146616    3.15082263243793
C         2.95457366096733   -3.69315261402008    2.10234132011773
C         2.05103891047462   -4.75500404413628    2.71949562025567
C         6.21588702007221   -1.16619045700993    2.65232328849311
O         6.57183582768508   -0.02610645680207    2.94366883544281
H         3.20884108085900    3.22569394791065    2.50870835126184
H         1.89137891078230    2.16299244818665    1.93633180304342
H         2.92770685276234    3.13384960746048    0.83295776117003
H         4.36387062859123    1.19756995093986    2.83102478197197
H         4.92419914446476    1.80603705620985    1.28945574915231
H         3.92954835794240   -1.37218780808036    0.13798471755901
H         5.28264583816839    0.35553494496135   -0.92777072267581
H         6.25401221504527   -1.07030099355223   -0.39484084268410
H         6.40758109710015    0.37701844257470    0.52539156951016
H         4.75866686194789   -4.78784931787332    2.68289740635506
H         3.80175858977715   -0.92820500144799    3.82839442695670
H         2.32260208556143   -1.69238716865545    1.63909943932904
H         1.49264203624673   -0.83389538172220    3.59705382014003
H         1.70570172345551   -2.44001641228316    4.46845085842351
H        -0.27277923254923   -1.87618917169039    2.60250581949785
H         2.84155358824086   -3.87671458585481    1.02655563025414
H         0.98387831175610   -4.54583577525901    2.84000820408810
H         2.43652844622118   -4.95642640059374    3.72599480412020
H         2.14380071374027   -5.66962529735113    2.12618723433172
H         6.75958066389369   -2.03626742661920    3.05317656416313
