37
 energy: -56.175646475778 gnorm: 0.111036648843 xtb: 6.4.1 (79825abcba525fcdf90b791dcacef51065a7a4e7)
C         5.93482653585042    2.86299719813238    1.47543172903682
C         4.63035927148308    2.10023057546647    1.33564080888824
O         5.01016091179799    0.75924420530056    1.01937340015057
C         3.98976830070404   -0.25351871884444    1.08007574033358
C         3.70904250364336   -0.86687773065779   -0.29831457578465
C         4.39686966025559   -1.13919245419427    2.27857800774941
O         5.07141215037083   -2.31220449241536    1.78156939174813
C         4.60132166329167   -3.38802439286669    2.61809632998556
O         4.25384616504165   -2.78498907980459    3.87925577469089
C         3.42043585802884   -1.76279268370753    3.29037155570897
C         2.37635290798585   -2.65959521896733    2.58009685747305
C         1.16741287797827   -3.01703371569401    3.44881288406634
O         0.22287333073568   -3.87645004942686    2.82423899119116
C         3.27131314140581   -3.77490122526387    1.96400466601370
C         2.80641771071837   -5.19321379652986    2.27552443324211
C         5.24274102615276   -0.19027301644194    3.14375880375000
O         4.69336221063771    0.59343241744157    3.91535586612903
H         6.54174346764695    2.70239297354401    0.57887387227961
H         6.55936843779100    2.53125634989889    2.31171731595762
H         5.90677472332737    3.95425499089958    1.54991693169938
H         3.91027818989529    2.52524851259009    0.63167537969097
H         4.11560526072127    2.14044665092593    2.30118471722749
H         3.08563284363516    0.21214646646410    1.48940477486751
H         3.13394668967511   -0.14824065704977   -0.89057306750318
H         3.08469570866126   -1.74799898589574   -0.11871377003150
H         4.66474021961025   -1.20087848707617   -0.71182041150335
H         5.31332162472876   -4.21308102550732    2.70473582586173
H         3.11006102856758   -1.03168668148055    4.03888372046618
H         1.89391195231505   -2.16824082217231    1.72895346999069
H         0.70576695908178   -2.04321885197628    3.64824867495251
H         1.39016553051152   -3.44574021253797    4.43018062020098
H         0.50934435800402   -4.79761466048657    2.94380469714637
H         3.39419290086895   -3.53193339967418    0.90115446290508
H         1.80665422891326   -5.49572426857391    1.94984550174133
H         2.91072948315019   -5.29378054995802    3.36236348471944
H         3.49883790154556   -5.92709678586540    1.85229677220752
H         6.32678731277081   -0.17196180927240    2.94926355970286
