37
 energy: -56.173712998652 gnorm: 0.124285642049 xtb: 6.4.1 (79825abcba525fcdf90b791dcacef51065a7a4e7)
C         3.56194876768001    2.51000176739173    0.58567637357572
C         3.55123222491272    1.76802557405560    1.90943833902968
O         4.57117026762326    0.79822403655802    2.15789389794084
C         4.56828176343764   -0.40414580657153    1.36740480170104
C         5.58951778168743   -0.21885065980262    0.23704254884527
C         4.84868131913135   -1.53590369274294    2.38084317408055
O         5.04987658609587   -2.79765574159296    1.71339684223257
C         4.32447427661269   -3.78154367083312    2.47753484192927
O         4.28270105281998   -3.17817517482462    3.78486625514509
C         3.71005386875925   -1.93009615350779    3.33696357954345
C         2.46501136813206   -2.33606444424937    2.50997318801110
C         1.18099054131986   -2.20100447342606    3.33278251797150
O         0.03110987052183   -2.27618442960814    2.50033649410305
C         2.86703877138213   -3.75369558911550    2.00685605246113
C         2.23547572731649   -4.97334054683930    2.66895666100195
C         6.18339957404477   -1.20942458847268    3.07107705017542
O         6.94876764714016   -0.29318044379719    2.77768027200021
H         2.84460648216691    3.33632621683783    0.56188947187606
H         3.51481443399216    1.94530715390222   -0.35154105327366
H         4.53030604057987    3.01783167171201    0.54603423723933
H         2.58525484682645    1.25659734384720    1.90214416956674
H         3.52189395518528    2.47328781837970    2.74646193050774
H         3.56865765835507   -0.45526721529467    0.92019849877273
H         6.56564062180355   -0.01523077744306    0.68833813214262
H         5.31962154586004    0.71291578748381   -0.27031072584345
H         5.57762942784032   -1.09613395321696   -0.41574715384324
H         4.77425481888637   -4.77793717237670    2.48567499082447
H         3.43007820095354   -1.26903748684790    4.15899402404505
H         2.48506990196005   -1.65859188788555    1.65017547727109
H         1.26457921102405   -1.22199610644564    3.81833637025059
H         1.12796481609628   -3.02700926638711    4.04790140381062
H         0.05517310636628   -1.45206320610260    1.98540832242464
H         2.83349356609696   -3.88650366738511    0.91826976452680
H         2.59957241429799   -5.30718436576919    3.64521907141824
H         2.51407483395496   -5.80839402027832    2.01528856028862
H         1.14365294964059   -5.02372541677411    2.71931546853614
H         6.46208323076044   -2.03699729178149    3.74247773552872
