37
 energy: -56.173756181934 gnorm: 0.125550563690 xtb: 6.4.1 (79825abcba525fcdf90b791dcacef51065a7a4e7)
C         3.08765567829732    2.59999916714338    2.08528455402109
C         3.57730537522593    1.69257549382017    0.97181487655839
O         4.15179692381379    0.65737425992736    1.77233762804750
C         4.70551330749074   -0.46430630120159    1.06113759236409
C         6.00837216694130   -0.09175975502944    0.34089873070137
C         5.01228986241941   -1.60094664322360    2.06138461153590
O         5.11641099531353   -2.85159340492387    1.35214285504601
C         4.31042444713857   -3.79347817453777    2.08793468640720
O         4.41397715865896   -3.28936761807757    3.43332063626457
C         3.93480696492260   -1.96932901787102    3.09547913293293
C         2.55903490519394   -2.32415522988473    2.47887245807773
C         1.42437757897293   -2.09795503239079    3.48154493387080
O         0.10242490691465   -2.07198967986534    2.95942340308479
C         2.80991858029787   -3.70000160641448    1.79437623697425
C         2.06929747600281   -4.82170838513856    2.51412424927548
C         6.25751804159006   -1.19415000324977    2.86662219010042
O         6.19317874483046   -0.26091134692277    3.66430595209008
H         3.65527710277688    3.53034110657298    1.98415263554835
H         3.37556726335936    2.14902071666696    3.04090138022317
H         1.99512709629653    2.62407254180679    2.13987660218076
H         4.41199409309420    2.14064198753823    0.42660344891154
H         2.75009277428625    1.26136631303006    0.39854179983651
H         4.01801519485943   -0.84310601294389    0.29581911423514
H         5.80665536646248    0.51392977390227   -0.54814293970517
H         6.41972048492678   -1.00984746397882   -0.09078119964080
H         6.78014609464049    0.33818637950497    0.98542416502239
H         4.74184848643131   -4.79712101005692    2.04618342456687
H         3.96308007710817   -1.40209760103216    4.02744917352600
H         2.38516764921408   -1.59509201892415    1.68083704188263
H         1.64081468251748   -1.11533412421675    3.91607700719747
H         1.47502200680279   -2.88638525812310    4.23805242750952
H        -0.41057490153480   -2.81196983602373    3.32571074306955
H         2.57581628110593   -3.65266574374447    0.72351732861286
H         2.01916539555746   -4.76329955857550    3.60553689838836
H         2.59810869223609   -5.77056333625191    2.36497087254183
H         1.02364968751846   -4.93047399404463    2.21090424882523
H         7.10391599272392   -1.89864269844862    2.89153405150850
