37
 energy: -56.176953704151 gnorm: 0.118294591787 xtb: 6.4.1 (79825abcba525fcdf90b791dcacef51065a7a4e7)
C         3.32621175685003    2.70728410401923    1.73870640251802
C         4.05758465141205    1.76376400924846    0.80176841867641
O         3.95607283409684    0.50048085862220    1.46232108889299
C         4.60361113602094   -0.65661530657790    0.90339605582376
C         5.81915837475196   -0.46491587382068   -0.01348580576445
C         4.92785975579741   -1.52315830057569    2.14053922956459
O         5.08927576656793   -2.85531517132289    1.61396033070583
C         4.28672452196757   -3.70478806200682    2.45803269916482
O         4.30812111053058   -3.03705459709341    3.73419419927420
C         3.87313357163356   -1.75284691647662    3.23635957215478
C         2.47850154110445   -2.15058802316778    2.69261544346492
C         1.40502451379510   -2.36538603210633    3.76288398233968
O         0.09805416195732   -2.67690671544058    3.29852709408850
C         2.84985573126770   -3.48216660517478    1.97607829061962
C         2.03150313924202   -4.74900064120544    2.20016192395563
C         6.21889202192171   -1.10774986532501    2.86521554366414
O         6.20338403780799   -0.34019752973121    3.82542188313115
H         2.36234103765124    2.29913476013275    2.05858953579602
H         3.30888286278914    3.72081899273424    1.32406812720075
H         3.81206314256396    2.80773859719040    2.71391707004045
H         5.08500499289440    2.12083865455886    0.69392838483525
H         3.59762117054018    1.55722236932783   -0.17015658341227
H         3.84202376833681   -1.13380159371056    0.27559579843933
H         5.50938864988275   -0.26459346611616   -1.04395084816716
H         6.55235166780332   -1.27261415846731    0.07866137829533
H         6.31632043256982    0.41866486611851    0.39641256574242
H         4.71338081640549   -4.70783497100579    2.54187846525744
H         3.93591763568968   -0.95996875172809    3.98370244623941
H         1.98528403342932   -1.47904386596369    1.98241235222064
H         1.34657399071465   -1.43068802549459    4.33220828554598
H         1.56800771991429   -3.17165237697489    4.48389834745666
H        -0.35407137273547   -1.86451691697406    3.01478219753451
H         2.84554906514863   -3.30323834985009    0.89360449935098
H         2.35842165663081   -5.29984911341428    3.08717749965533
H         2.30741092835369   -5.40749222845576    1.36800961073424
H         0.98044467011807   -4.45960729180926    2.29332419607883
H         7.18220266985924   -1.55651653626459    2.57545511670072
