37
 energy: -56.173322815218 gnorm: 0.111726392962 xtb: 6.4.1 (79825abcba525fcdf90b791dcacef51065a7a4e7)
C         4.05020369968941    2.81469752397616    0.69060195587204
C         4.44580355754350    2.21830438259607    2.02881166700478
O         5.12304284096623    0.96529421723390    1.91120523206780
C         4.42364400241722   -0.22732931610599    1.51237573754862
C         4.88464394763117   -0.60562297522663    0.09839232132233
C         4.78132417603357   -1.37620095318635    2.48124933829854
O         5.30130785974828   -2.56628778933818    1.85571542476540
C         4.46179329540234   -3.65409203523250    2.29166045461155
O         4.12118496051055   -3.24888883548114    3.63132843508517
C         3.61510277933855   -1.93354524484202    3.31510870017642
C         2.43863485879812   -2.37064830042521    2.40751939287171
C         1.31752298213102   -2.82131140438889    3.34771980926145
O         0.16969806773196   -3.11048777308560    2.56049749820362
C         3.10082239880946   -3.52589546294854    1.60046139353730
C         2.30264454967555   -4.82299435419070    1.52814609374199
C         5.81119605594786   -0.79194005244975    3.46231376013194
O         5.44191106613388   -0.54168450404425    4.60790272557190
H         4.96242276244791    3.28874761047914    0.31498144872344
H         3.29704497935945    3.60978934727853    0.69828908491519
H         3.69425141952986    2.01098342318435    0.03904985745259
H         3.67359978025656    2.20480498055008    2.80227363985586
H         5.28209212749750    2.82140240965232    2.39726554582366
H         3.33373330357597   -0.10965577870217    1.50223433530508
H         4.63163190458035    0.24217510824392   -0.54594290187198
H         4.36470457936513   -1.51931048786300   -0.20702251567168
H         5.92040054425008   -0.94484928974888    0.00875144309181
H         4.93328507757899   -4.63842617774105    2.22880664238547
H         3.43535405213761   -1.42100925240936    4.26174287141350
H         1.91908729047883   -1.69925182277593    1.71620137649097
H         1.11218375419108   -2.02450452139803    4.07169604424441
H         1.60526340811468   -3.72481077977758    3.89304998210883
H        -0.61751838909431   -3.11115329724039    3.13075678973641
H         3.39462237556395   -3.13693023062474    0.61752141592721
H         2.24886490165305   -5.44349371687498    2.42769857984978
H         2.80238543700983   -5.40571269881231    0.74525904767814
H         1.24435477524651   -4.65122761064946    1.30981019819342
H         6.74331270732152   -0.53214795693538    2.93601852649880
