37
 energy: -56.176413314982 gnorm: 0.122244895252 xtb: 6.4.1 (79825abcba525fcdf90b791dcacef51065a7a4e7)
C         3.78978982356256    3.07273660372963    1.80601950882445
C         3.56914562928108    1.57131344434691    1.81184215943206
O         4.68217166835334    0.91488772883987    1.20127101247097
C         4.42279234079348   -0.46725817399591    0.89636173360035
C         5.30946723163099   -0.94389480190439   -0.26191341980953
C         4.83855694812376   -1.41760440752448    2.04114950223408
O         5.15957487574176   -2.77204918866567    1.66643731547707
C         4.46874452812075   -3.65714428607626    2.57060043857618
O         4.33037604933380   -2.91053271977157    3.79466714608060
C         3.77625356711590   -1.77516999932377    3.09456528648967
C         2.50803159441317   -2.38289349035067    2.44561275772215
C         1.31746844558146   -2.24237165546253    3.39786213990776
O         0.13303740440223   -2.51845168278791    2.66182756305645
C         3.02670819016863   -3.80349463501296    2.07507539815599
C         2.30835790255337   -4.95813512782319    2.76468479505547
C         6.10029893520846   -0.81395811696573    2.67997857101750
O         6.15740995418204    0.04786460707993    3.55483468858636
H         3.86332010883755    3.47110996713886    0.78923544616689
H         4.65030047155848    3.32580074851078    2.43447644788773
H         2.84494070712835    3.44921208716872    2.20938643715377
H         2.75336168924927    1.24447244529260    1.16192226858481
H         3.39786791632205    1.39456976944417    2.87874875401803
H         3.37000872070872   -0.65414397320961    0.65433778066303
H         5.23788929078319   -0.32844229746765   -1.16415472852486
H         4.98065001634960   -1.97718844255868   -0.41232465211574
H         6.36772768573451   -0.97672575844639    0.01178103580005
H         5.03092507932119   -4.58012244711587    2.73562513991944
H         3.66219584351375   -0.95872490218813    3.80977661850401
H         2.13287953105268   -1.82129187470720    1.58393528652919
H         1.34235288395240   -1.27092053659496    3.90468605473324
H         1.32493879922423   -2.92596775527577    4.25175395551234
H         0.17471894302817   -3.47049039584699    2.47001830546641
H         2.90561260571452   -4.02722209779577    1.00780539521237
H         1.27300047976192   -4.89342821039370    2.41689978376147
H         2.26239470684321   -4.88674909803709    3.85784771483019
H         2.73131818888428   -5.92896232584835    2.48945621103074
H         7.04671211276480   -1.25844604683220    2.33349245297252
