37
 energy: -56.175462987336 gnorm: 0.115681123788 xtb: 6.4.1 (79825abcba525fcdf90b791dcacef51065a7a4e7)
C         2.86906525919239    2.17115715190127    2.03373290374481
C         4.12447235802084    1.53940525683578    1.46116690196301
O         3.66320526183412    0.24541862342767    1.06702217977269
C         4.67483821378001   -0.70835819361808    0.69623498718789
C         5.92054493975285   -0.10574078746361    0.03287751684588
C         4.93817846348753   -1.62285194785491    1.91316155188577
O         5.09147261964506   -3.01157126283924    1.55827853785465
C         4.31057109257658   -3.72413585683064    2.53837820724041
O         4.36452034943783   -2.81133947568833    3.65139492614612
C         3.83917014984671   -1.64010976251862    2.98922350558667
C         2.50393000817018   -2.20139343287864    2.44063567345163
C         1.38327529041781   -1.82176418088055    3.41222227483741
O         0.10442829920256   -2.12044717163190    2.86799547036159
C         2.82574131997757   -3.69927503689386    2.16275235165944
C         2.19855743860726   -4.76095728646482    3.05955450741850
C         6.25397461334476   -1.23138612249244    2.60592359734240
O         6.54023390074823   -0.25088163289361    3.29005798592043
H         2.90433416259587    2.46540577097856    3.08736079058239
H         2.11231953573784    1.38036790479941    1.99543880409199
H         2.56242127070945    3.06178940132865    1.47702635516502
H         4.86356171245715    1.43971455753980    2.26024951809222
H         4.48500327268811    2.06039852745090    0.56816772249800
H         4.27168197906835   -1.35420745875957   -0.09256094397474
H         5.60535574098219    0.53908979050079   -0.79343589480499
H         6.56202445122530   -0.83249899067635   -0.47581353049997
H         6.50911683978387    0.46335509235577    0.75787041360479
H         4.66483722346886   -4.75069835215772    2.66421049624811
H         3.68592706053739   -0.74692538870300    3.59738239586104
H         2.18210712758224   -1.73504943845535    1.50384496660354
H         1.55351862913581   -0.74188433136161    3.49022044547298
H         1.46886930027265   -2.34633573829467    4.36825000252321
H        -0.43924602340027   -2.46855309256904    3.59473225309303
H         2.64814171521613   -3.96486231331485    1.11313091632233
H         1.10875430302472   -4.66723019806231    3.03404470998593
H         2.47148235310707   -4.56702056287565    4.10363989218545
H         2.59547943228072   -5.69574755796878    2.65240378745727
H         7.11095621656970   -1.80814261210202    2.22349120657978
