37
 energy: -56.176388315804 gnorm: 0.119701157826 xtb: 6.4.1 (79825abcba525fcdf90b791dcacef51065a7a4e7)
C         2.95155724785187    2.60964216848078    1.93523726568357
C         3.94264804738882    1.46053891527091    1.91820799200811
O         3.51631072623489    0.31581056081547    1.17635067799337
C         4.44743372788420   -0.72332079372890    0.82451184955636
C         5.61004131326776   -0.20948158754214   -0.03530732727297
C         4.99651991019450   -1.64542212600747    1.93572321431141
O         5.18236630838967   -3.02213124518586    1.55086541515442
C         4.37334125533555   -3.85800452701666    2.40230254186159
O         4.40823505298289   -3.18686188033781    3.67637630198845
C         4.06974533543434   -1.88966942625025    3.13882695389728
C         2.69115409112763   -2.27111859230478    2.54482615284855
C         1.57295896870845   -2.04924873957509    3.56677495172796
O         0.26195669749575   -2.21374667130925    3.04231575395192
C         2.88986592832430   -3.73135323407388    2.04217380447227
C         1.98047866726184   -4.67912487111230    2.81646488188859
C         6.33182406651514   -1.11573057267052    2.48424300064725
O         6.49454089569890    0.07403074845702    2.74761450913431
H         3.45257053811556    3.51621653176668    2.28888465222935
H         2.03962283781857    2.39603025646856    2.50288481536428
H         2.58454285074530    2.80342919713864    0.92285120402188
H         4.18847643122915    1.12781788247890    2.92993396914980
H         4.84049016606339    1.72718532161364    1.35107195411823
H         3.85772434980719   -1.37539091692173    0.16960524844604
H         5.14014482857366    0.25394111029431   -0.90845179585515
H         6.33851848429074   -1.01078486213957   -0.19553876216434
H         6.18313104994082    0.52962203611232    0.53143397126991
H         4.93605259628142   -4.79508345591576    2.42249771927135
H         3.97405405700183   -1.08181912514319    3.86638457316450
H         2.50260155369735   -1.54677197918135    1.74583087442484
H         1.84802603255248   -1.08309391604488    4.00505564795813
H         1.70263712061151   -2.74512300595690    4.40070136236357
H        -0.26169441201667   -1.40976128514359    2.88642198770829
H         2.69336982798641   -3.75828737087651    0.96307824720452
H         2.30215547797239   -4.64681985907502    3.86173365595272
H         2.11026405132125   -5.67420193272447    2.37466045589360
H         0.94072844362388   -4.39168242674237    2.63357709059486
H         7.10925866223149   -1.87671303766791    2.65693113677396
