37
 energy: -56.183840562856 gnorm: 0.118481054663 xtb: 6.4.1 (79825abcba525fcdf90b791dcacef51065a7a4e7)
C         2.17924848557561    1.65623364389720    1.79325182037469
C         3.26388472449691    1.17513331859059    0.84715670577973
O         4.39083631805994    0.60472101731014    1.51583354021827
C         4.95743673541734   -0.62705861561915    1.03390253665745
C         6.25672763721601   -0.26231578091131    0.30329871565719
C         5.16643723257001   -1.64300826575401    2.17877033820642
O         5.33875748730862   -2.98639764981580    1.68521882188539
C         4.27507704461821   -3.69662166012461    2.35028771604515
O         4.31757848576101   -3.10813522224856    3.66436203460075
C         4.03552847897954   -1.76497469775281    3.21423932641520
C         2.67251315260404   -1.89335009206950    2.48997197466300
C         1.55075304252544   -1.76200005166228    3.52359053329225
O         0.30813583626946   -1.84544969783589    2.83818363928457
C         2.85969852097287   -3.32206215029506    1.89990887022062
C         1.83109163943915   -4.36307110012501    2.32775367903199
C         6.43672034983302   -1.42199637766677    3.01663597158921
O         6.65443548804939   -0.51544741534735    3.81797385480218
H         1.60042232010378    2.39593717124791    1.23132937904744
H         2.60696323556600    2.22437259884297    2.62617221252101
H         1.59290285368217    0.91545951406662    2.34518569927753
H         3.59525353594929    2.04795249022369    0.27873279809059
H         2.78568397239397    0.50849901492266    0.12204512555760
H         4.22896715161057   -1.03269838091909    0.32211346559567
H         6.08445904873233    0.63516226947672   -0.29903112961065
H         6.59797408981110   -1.03537153926220   -0.39267232141781
H         7.06218094875149    0.00331320823593    0.99365218147276
H         4.52577996234805   -4.76072136712657    2.35323320229135
H         4.00085421859310   -0.92551049835572    3.91081420930042
H         2.49479937887887   -1.12329700769660    1.73230477863353
H         1.66016923320807   -0.76719613173470    3.97035697914181
H         1.56922884999129   -2.46483302023538    4.36154944311600
H        -0.35037292036219   -1.56299545764315    3.49506389693449
H         2.90765911746760   -3.22454663267903    0.80813330290131
H         0.83762108659115   -4.11056090429728    1.94518178633701
H         1.91755926907195   -4.48774230819268    3.41366076169647
H         2.15080211661288   -5.30077304249056    1.86337031601477
H         7.14695647605212   -2.23655206386235    2.80360139348924
