37
 energy: -56.175309908708 gnorm: 0.123399770400 xtb: 6.4.1 (79825abcba525fcdf90b791dcacef51065a7a4e7)
C         3.19637853339106    2.68101785946421    1.75914141738050
C         3.25303415880544    1.29643854468430    1.14049812072223
O         4.44971998226996    0.63728305547370    1.55999292466179
C         4.66118081192652   -0.63667359441118    0.92525409442988
C         5.86721096672691   -0.49872692120676   -0.01359526413481
C         5.01125629445849   -1.54276578372829    2.12650397912866
O         5.19493005231770   -2.90620966176726    1.69607730223778
C         4.33600380214264   -3.66034064384487    2.57453220453101
O         4.24308704689875   -2.92866913682899    3.81184269552263
C         3.88666240141076   -1.68685934275721    3.16600002761693
C         2.55685954486718   -2.08425362901101    2.47857270148588
C         1.36031973142542   -2.01286216568498    3.43102302006202
O         0.18839060784821   -2.24966045768131    2.66202843929158
C         2.92644851619754   -3.51654065415879    1.99237436347342
C         2.14530758734824   -4.69962761737651    2.55354012105492
C         6.31642416289949   -1.13689168111405    2.83098057803397
O         6.44912846588806   -0.65048283132533    3.95221618384040
H         2.27022170613303    3.11216103304148    1.36632216438935
H         4.01134044423224    3.32663177430646    1.41490615263359
H         3.13557490732822    2.48813122276667    2.83444425174630
H         3.15830418366995    1.44849418721619    0.06224506593901
H         2.32309244738792    0.79371575898558    1.42570379598601
H         3.73786392386780   -1.03393649287234    0.48762028693829
H         5.65575903854074    0.04163341826526   -0.94162723705037
H         6.20038381220590   -1.48642297865425   -0.34809846421085
H         6.75390249590808   -0.05334141729803    0.44609114011496
H         4.76304480913195   -4.65983359065984    2.69208491023384
H         3.93283348214439   -0.83198388146837    3.84288640981094
H         2.41136411267558   -1.41740606259606    1.62255347822296
H         1.33175461023543   -1.04351570160708    3.94166815644660
H         1.44480370266033   -2.88259604672695    4.08898662389705
H        -0.56126449396781   -2.30871437661450    3.27801197392016
H         2.99154513969918   -3.45427213389601    0.89890811387886
H         1.09524485497255   -4.65632551307460    2.24923833948055
H         2.52085150437340   -4.78497708566318    3.58013448470239
H         2.55114227582055   -5.61174699424339    2.10578117358460
H         7.12998454443062   -1.58187837559113    2.23648382563837
