37
 energy: -56.170955665346 gnorm: 0.141359515092 xtb: 6.4.1 (79825abcba525fcdf90b791dcacef51065a7a4e7)
C         2.29909420767491    2.00457177042022    1.43434761133775
C         3.73407927664273    1.60553718234854    1.14352376074520
O         4.11861556731705    0.38908089545946    1.78763923802426
C         4.80083773737714   -0.62981247885593    1.03464268140703
C         6.05003306353103   -0.05583564278918    0.35270589947086
C         5.11196728045458   -1.68787205147712    2.11643081645127
O         5.16193427126875   -2.99010825806127    1.50025992411631
C         4.24937347627581   -3.70878861788889    2.35400590607494
O         4.40988083760259   -3.14311345261054    3.66898231975590
C         4.00601007497324   -1.84790212314739    3.17344334727227
C         2.62776575030285   -1.99583624939585    2.48249306770643
C         1.57268079584613   -2.04132322848446    3.59095712712724
O         0.21989146899726   -1.89294508045504    3.18011782532401
C         2.80449492323966   -3.43821268882434    1.92325431477747
C         1.82589203141632   -4.47151423474479    2.47043547972561
C         6.50563159354778   -1.44339900728487    2.71844160715769
O         6.63866867720191   -0.87122801190051    3.79839290174632
H         1.64844240149973    1.25009471214477    0.98116501625137
H         2.00478882301612    2.94516313673947    0.95669671197525
H         2.10950404653218    2.06761641882700    2.51010755782220
H         4.41514889351641    2.31222312936711    1.62463028508843
H         3.91606620986975    1.66131824187408    0.06526901826973
H         4.13546362313879   -1.04542381543828    0.26887525429976
H         5.89035545370028    0.97899851152570    0.03401185198356
H         6.31138510448733   -0.80249749706214   -0.40401811104066
H         6.80402326655254   -0.03002004490751    1.14437126071976
H         4.54902962629949   -4.75904304136564    2.30562559107076
H         4.04521233156409   -0.95140333644744    3.79462941231356
H         2.40875694468831   -1.22559816221764    1.73590620380504
H         1.91534614559540   -1.16837443564249    4.15818535534019
H         1.53396887338176   -2.93036104725512    4.22704188041929
H         0.11999660368203   -1.12042653515345    2.59861807063170
H         2.75845663946106   -3.42904115050732    0.82708838683825
H         2.08300389341426   -4.75540270459490    3.49532923922231
H         1.74925557335358   -5.29836624609074    1.75443522990472
H         0.83374275201409   -4.01022501251630    2.47235645217491
H         7.31835410414590   -2.00570092163156    2.23200689443217
