37
 energy: -56.174323242893 gnorm: 0.136240628390 xtb: 6.4.1 (79825abcba525fcdf90b791dcacef51065a7a4e7)
C         2.97581124539585    2.66148090160062    1.47030809439380
C         3.80295572295648    1.61806028872615    0.74223206542210
O         4.41652916350730    0.71498114521326    1.66445465428394
C         4.52915711867580   -0.59723970485889    1.08482892647150
C         5.61769401854917   -0.64437305293089    0.00416153517309
C         4.95978600300339   -1.55227833150852    2.22017784679040
O         5.21166830345472   -2.87542889150590    1.70655319042597
C         4.33374389341989   -3.70463577806098    2.49383682885384
O         4.35796405219072   -3.13743471922958    3.81769872300757
C         3.91617535150923   -1.86048745207037    3.30733486415030
C         2.53605476128150   -2.10292810993652    2.64752891081640
C         1.54413200729006   -2.27872494034855    3.80041686265001
O         0.32887924875419   -2.46709850316263    3.08731090116282
C         2.89877317272887   -3.47596602954146    2.00906732317298
C         1.96445824460315   -4.65653430333927    2.25010071089166
C         6.24217179075707   -1.06414744782362    2.91422335789409
O         6.51043083232099   -0.00323209783997    3.47446347718985
H         3.03796173640270    3.66976874019176    1.04905897583932
H         3.25664931546799    2.80731652253813    2.51880230535827
H         1.94139976018310    2.30537859083529    1.45126749587396
H         4.58885255623345    2.22317443138083    0.28296375524313
H         3.25424347035765    1.05503312039504   -0.01985673176126
H         3.58948021523359   -1.00517420022717    0.69437789737840
H         5.30614054913773   -0.29090586318600   -0.98373519021952
H         5.81586579359072   -1.71916935619779   -0.05893283699067
H         6.50968333899985   -0.13598765878315    0.38072634319605
H         4.59196758836531   -4.76673907973930    2.51447449997481
H         4.02530044440659   -1.09031222466909    4.07286791037982
H         2.26898209460847   -1.27798146224673    1.97912877921599
H         1.50597996109071   -1.41363424517467    4.47225725105786
H         1.70018702283582   -3.21576803747475    4.34271543431760
H        -0.47369908544404   -2.32843444790509    3.61792012668409
H         2.99794592153598   -3.44590559139968    0.91680154995397
H         0.90652114817243   -4.37749422203880    2.25358264497695
H         2.21557142003859   -5.16494899160297    3.18854113489229
H         2.21640815611049   -5.39058989196755    1.47884507022422
H         6.99053504535564   -1.87237063562212    2.92113421588564
