37
 energy: -56.176150296182 gnorm: 0.125449872557 xtb: 6.4.1 (79825abcba525fcdf90b791dcacef51065a7a4e7)
C         4.20263949936763    3.03369860054130    1.65359284554413
C         3.86972188113204    1.58236873374257    1.94650366149062
O         4.81237170673236    0.83073799064802    1.17905246258273
C         4.40079396197866   -0.49743140318819    0.80872229832895
C         5.19789031825466   -0.88747603832402   -0.44326761163477
C         4.74110846611509   -1.40877476590948    2.00880417932673
O         5.18583929005331   -2.75436213428072    1.74500214143872
C         4.51504593985530   -3.60144402854613    2.69927642095275
O         4.24329895880315   -2.78783906997549    3.85647757885794
C         3.66613713714060   -1.72911689379603    3.06134586839249
C         2.46188184405618   -2.46833370169683    2.42716773810427
C         1.23599030535204   -2.52438275813436    3.34259895959561
O         0.05899937688218   -2.70160720744315    2.56534236268396
C         3.13676049130184   -3.82516503317804    2.06942689319974
C         2.42526538115597   -5.00576238030418    2.72115347512517
C         5.80410315656659   -0.55219562640966    2.71647554032728
O         5.68096940577638    0.06053033583108    3.77514370635905
H         4.52643438699900    3.12292342425495    0.61188575061456
H         5.08926053009983    3.15688205059279    2.28462941149884
H         3.42064692900436    3.73212453507182    1.96643043082010
H         2.88235755262924    1.25995209443925    1.60608695693002
H         3.94657744664583    1.38903338242053    3.02148213933466
H         3.31693783181540   -0.53062847862507    0.64744896423720
H         4.89799359814307   -0.29036047741147   -1.31013526570874
H         4.86601803498333   -1.90650310589182   -0.66661636894356
H         6.26633307510746   -0.76242670846463   -0.24655855510348
H         5.09665915663716   -4.44700250828431    3.07600673950537
H         3.56802533314937   -0.94258819814277    3.81158962441914
H         2.18923838776353   -1.82915361704658    1.58115480527270
H         1.16272815362965   -1.59238322340454    3.91462738205059
H         1.26304757485232   -3.39396390910757    4.00561268028355
H        -0.72195294449513   -2.59273760994227    3.13381992112570
H         3.14695168367474   -3.95000676765857    0.97942961876503
H         1.33974806909197   -5.13746624072402    2.68356830019656
H         2.76598597924216   -5.06753956522857    3.76149322974611
H         2.81204472684119   -5.94154454683349    2.30658731429610
H         6.77660872122479   -0.69465388703668    2.21922446642127
