37
 energy: -56.175621881966 gnorm: 0.124193054905 xtb: 6.4.1 (79825abcba525fcdf90b791dcacef51065a7a4e7)
C         2.79120348257916    2.39932379869454    1.24639346037941
C         3.48172497974655    1.24546791211089    0.54298325402544
O         4.15072425178933    0.42291694018474    1.50129879506441
C         4.94507949250840   -0.66975830303203    1.00568285388169
C         6.24490659822788   -0.17117121080080    0.36005406713458
C         5.10916306113854   -1.66194743052849    2.17836972706787
O         4.99558258940624   -2.96048631900125    1.56283854921268
C         4.09507394633583   -3.72990105493727    2.38456600155656
O         4.25897633491708   -3.10799456924149    3.67347340762288
C         3.97578077411164   -1.76865119631549    3.21281901811404
C         2.54070490201258   -1.97236334012471    2.66700512927897
C         1.67499214577004   -2.03687279023107    3.92809427952314
O         0.30554705052267   -2.28385793285450    3.63747005561831
C         2.68523184935913   -3.33743506138465    1.93207512033959
C         1.66892632394485   -4.43484264383016    2.22805247903375
C         6.40902169414803   -1.47611564075706    2.97856866594270
O         6.57366738885202   -0.38834726653344    3.52722618217509
H         1.83469850787141    1.99536649138726    1.59262256982226
H         2.77573198375965    3.36226411009965    0.72487188980578
H         3.41678735972017    2.55821205976641    2.12989663190437
H         4.30090072181852    1.56178304718346   -0.10787784999785
H         2.78307849115093    0.60123152695835   -0.00081507889282
H         4.36847969690334   -1.21888828781741    0.25212849059402
H         6.73797201004105    0.33111476832776    1.19823057544473
H         6.02373184024797    0.60686156692650   -0.37763608292828
H         6.73759366129218   -1.01472124802333   -0.13145839503865
H         4.42800271287871   -4.77067774244289    2.41789967927430
H         4.24376870487065   -1.07250916625172    4.00949194701453
H         2.33060040623705   -1.10599391832454    2.03148672691027
H         1.78204933871540   -1.17816849931983    4.60068084587057
H         1.99920378255626   -2.87060992565886    4.55758603924567
H        -0.17994666506165   -1.45550851521277    3.48568419928992
H         2.67889882381362   -3.07983242795345    0.86559298076416
H         1.73281511492860   -4.64016799212819    3.30083676009677
H         1.86821680323389   -5.39032386943007    1.72849999718835
H         0.62457469005963   -4.19438455761886    2.00745964625126
H         7.01913856964971   -2.39228712570124    3.01988759672592
