37
 energy: -56.178859838746 gnorm: 0.117898737194 xtb: 6.4.1 (79825abcba525fcdf90b791dcacef51065a7a4e7)
C         3.37360198453606    2.76209750603281    1.14704572119799
C         4.00090243747344    1.48524332539445    1.67537025344044
O         3.52866052729128    0.45220732831049    0.80799316493643
C         4.32926588996565   -0.72649438563819    0.60732446967825
C         5.52196402986710   -0.34004703515897   -0.27760814920923
C         4.74812857225620   -1.42542742435644    1.91980451522402
O         5.06374081249868   -2.76315885743876    1.48524040492242
C         4.43139963495637   -3.60990987111882    2.46570367788346
O         4.46286433593035   -2.88505636745157    3.71009563825082
C         3.85007809294016   -1.70994322308464    3.13577431822933
C         2.46094868359771   -2.22501477725897    2.68424911570621
C         1.60683855683973   -2.15314204411357    3.95282946948721
O         0.45710892231778   -2.98859376620753    3.92142620862905
C         2.94049077449590   -3.59245682921161    2.11453637657107
C         2.33210623243401   -4.86841443322273    2.68601112193515
C         6.01162124329463   -0.89921957691560    2.62064391733017
O         6.20417134078433   -0.15995804885968    3.58386256699755
H         3.56340099925819    2.79577713846508    0.06964148576155
H         3.87435657391857    3.65156369559665    1.54400025240298
H         2.32002842415371    2.79813206426964    1.44006924366843
H         3.71103311690967    1.15036142370286    2.67464710576946
H         5.09379636041588    1.45434486199662    1.61627522067627
H         3.66656989997254   -1.43127982892667    0.09160481737326
H         5.14431292805383    0.18362117447971   -1.16140440177518
H         6.03101996470569   -1.21837652122885   -0.68729023025257
H         6.19206658076238    0.32400401669151    0.27547456101469
H         4.92317094615620   -4.58329042963730    2.54225488935170
H         3.89106388918638   -0.90857716009837    3.87553889018506
H         1.94199116857514   -1.65647444938636    1.90574509035505
H         1.33825171545047   -1.12368016657252    4.21603347970278
H         2.22379335537154   -2.51106657070277    4.78213489419118
H        -0.34292301120397   -2.43987844027601    3.86005643091086
H         2.72211614818639   -3.64937330944819    1.04082485749369
H         1.31370285451608   -4.95865262900675    2.29637279840233
H         2.42081650102960   -4.93442830219878    3.77687610545166
H         2.90183409543710   -5.72924926981101    2.32334712059291
H         6.89104442663702   -1.40900947014072    2.19632187717416
