37
 energy: -56.179914666672 gnorm: 0.113293476362 xtb: 6.4.1 (79825abcba525fcdf90b791dcacef51065a7a4e7)
C         2.71139720811601    2.36491733593321    1.79180632529223
C         3.94621783946899    1.53460850459043    1.49382224006994
O         3.60102043778958    0.14866809056972    1.44355573381444
C         4.56405274161138   -0.73149496855124    0.83654967402413
C         5.68704942796512   -0.15394262566289   -0.03539518954518
C         5.03531919382657   -1.65538020894148    1.98149560000226
O         5.15621822519037   -3.01424601955758    1.51582457836724
C         4.39516747003846   -3.80659084995854    2.44917460152576
O         4.51680800394201   -3.04428626775216    3.66531985329738
C         4.02158430329448   -1.79769620612106    3.12958712152715
C         2.63670080907936   -2.23766437712422    2.59350885559399
C         1.56604754957360   -2.00221252678870    3.66226042087485
O         0.31909006328112   -2.17966972172753    3.00313225286891
C         2.89337146045424   -3.71176815533040    2.16273143660307
C         2.03711728396975   -4.71060877962439    2.93339940142786
C         6.35223499779857   -1.09438086144060    2.54318655181994
O         6.62541357075213    0.05833154320281    2.87182140018463
H         2.45623440018552    2.34884031946422    2.85603907205588
H         1.82532829068935    2.22729379511154    1.16298218987536
H         3.00783719118152    3.37756877184974    1.50225680213379
H         4.63651868611768    1.78803020793582    2.30251656770309
H         4.26576695179043    1.77377236050287    0.47423748303648
H         3.96055729889388   -1.44478788129323    0.26308500921893
H         5.19504408145947    0.31450551703969   -0.89355114051802
H         6.19401085959316   -1.05078822611401   -0.40566281395518
H         6.32604336822196    0.56439084605671    0.48574343629999
H         4.73096044997747   -4.84007373739077    2.56886170705284
H         4.04790865194777   -1.07691147488155    3.94866916338944
H         2.27239932968188   -1.68449670772233    1.72177869494780
H         1.58992631437472   -0.95029465416174    3.96902676069383
H         1.57129624757412   -2.68645456084324    4.51565127887474
H        -0.05494159712892   -1.40152213729189    2.55648641439723
H         2.65318013959017   -3.80864909684404    1.09656747749565
H         0.97840491071812   -4.43676474245052    2.89812982175064
H         2.29063241660966   -4.64105996882763    3.99787429111916
H         2.12623210507254   -5.75744764551465    2.62788579910184
H         7.02278037836878   -1.96373363299337    2.63215112907819
