37
 energy: -56.181767904373 gnorm: 0.127674426499 xtb: 6.4.1 (79825abcba525fcdf90b791dcacef51065a7a4e7)
C         3.26427465408260    2.48759575927302    2.13936282693583
C         4.34209469379535    1.43683888932626    1.94648144679950
O         3.71693153067203    0.47246777879517    1.09696501013964
C         4.44913752088771   -0.67030192793186    0.61892069579347
C         5.61082900441099   -0.24676727805220   -0.28996181152109
C         4.84393983274500   -1.53759479534982    1.83485300581044
O         5.11675193366645   -2.89274508991695    1.42604543206801
C         4.30100188415219   -3.62151034925007    2.36498308467047
O         4.40512581739014   -2.89290923373804    3.60321270727779
C         3.83163516345036   -1.72401596020213    2.97788092494689
C         2.45433423148770   -2.21894552943749    2.47098738740484
C         1.36064429778076   -1.99652828141085    3.51900398039348
O         0.10139989678738   -2.57662594259709    3.20494314453284
C         2.78405147744895   -3.71101147033559    2.17189421659014
C         2.36853571811612   -4.83510589872789    3.11451890000906
C         6.16531624977663   -1.05155486964403    2.45308743569891
O         6.28628886564489   -0.20000802408986    3.33149901211465
H         3.56010759367481    3.35957205217690    2.73105369647730
H         2.39911966837300    2.03437214194431    2.63491642029827
H         3.02301460423765    2.90863065971561    1.15869890828662
H         4.60906888265802    1.05508405228494    2.93527483253372
H         5.21726870556074    1.83423752954089    1.42206860342699
H         3.77219450729872   -1.20182616174207   -0.06011198299132
H         5.16142528979912    0.33680695036967   -1.09954317422655
H         6.13126877881786   -1.08490731183276   -0.76441281315096
H         6.34930155244681    0.41008198513873    0.17812903610683
H         4.77138687404041   -4.60417163368478    2.45599726042534
H         3.75475199600063   -0.85079333523627    3.62802724010115
H         2.15052243956539   -1.63667521507255    1.59504036189004
H         1.22315458430752   -0.90919921818555    3.51463576568773
H         1.60493042464717   -2.43063923993594    4.49284310091654
H        -0.07748437577451   -2.35653742243824    2.27517580126064
H         2.48186793408200   -3.98182949201392    1.15251887687550
H         2.79358210484679   -4.82782495583908    4.12268007024197
H         2.41272458847362   -5.87306256825611    2.76393788860443
H         1.27939352372154   -4.78635196843009    3.20695245961574
H         7.05822754468896   -1.44986261579145    1.94576071225183
