37
 energy: -56.177928762893 gnorm: 0.120001445806 xtb: 6.4.1 (79825abcba525fcdf90b791dcacef51065a7a4e7)
C         3.51867711768599    2.96891223091083    1.51960661481777
C         3.69769877857073    1.69134009362101    0.72038828100787
O         3.98888451315346    0.63438015161705    1.63721179431955
C         4.68162756990158   -0.45968919003837    1.00976145816284
C         6.02635448586002   -0.26416291229138    0.29670105493267
C         4.90425335132903   -1.51184042360422    2.11880281824873
O         5.11006975826819   -2.83248419032292    1.57887500374170
C         4.26244840021787   -3.68733622282608    2.37191781011429
O         4.37301107396595   -3.01806837376960    3.64265398059205
C         3.78331694538920   -1.80279900109340    3.13116200110634
C         2.40624844778026   -2.23865319580575    2.57208449334212
C         1.36640077024179   -2.34101448880151    3.69110408722995
O         0.10744857900408   -2.62439959574015    3.09480195757337
C         2.78735517962107   -3.62064035816448    1.96438383293099
C         2.13896840186212   -4.94959085040417    2.33622800748808
C         6.12268151532164   -1.21326638673032    3.00805566107453
O         6.25347569379732   -0.33613486466210    3.85947005844146
H         3.24129216204002    3.73847515064816    0.79242825375376
H         4.40330855469114    3.33605716924879    2.05074687407466
H         2.62081553589672    2.91609971251874    2.14269082919416
H         4.53529872647606    1.80874438778549    0.02802501239079
H         2.72286628728896    1.53489226269692    0.24700708868160
H         4.04967787611801   -0.94830534984343    0.25892919776800
H         5.81007914308562    0.17273589533746   -0.68324229678285
H         6.41469633740222   -1.28378969153854    0.20730373186600
H         6.68719871440972    0.41366095075234    0.84418751603113
H         4.58923457004404   -4.72713436804814    2.45676726071110
H         3.59509480870005   -1.00039045909029    3.84658632877348
H         2.04356342234352   -1.55094039593504    1.80128349182611
H         1.41854073600798   -1.42052755592338    4.28371881980620
H         1.54356183562837   -3.15039981072773    4.40524694739868
H        -0.41565240661511   -3.05566958905188    3.79142050749661
H         2.81184112917488   -3.52294545570523    0.87184572292986
H         1.04587560625792   -4.95667779349820    2.28927801458489
H         2.43327921843049   -5.23989468174567    3.35176657306889
H         2.52813083008665   -5.73295072731162    1.67892173705829
H         7.01109391976835   -1.81958418379818    2.77052213580945
