37
 energy: -56.174751855963 gnorm: 0.140214897827 xtb: 6.4.1 (79825abcba525fcdf90b791dcacef51065a7a4e7)
C         2.90687014548264    2.55485700262430    1.61091281390695
C         3.87872760512347    1.82065040245001    0.70569294253681
O         4.32778997808664    0.80678285638633    1.60732168641489
C         4.63683041056406   -0.47265871358053    1.02585983830829
C         5.86636609905963   -0.43890034781371    0.10821147623574
C         4.89595296286419   -1.47565547969098    2.17190093713345
O         5.03406312603936   -2.76494400247764    1.54210486664881
C         4.33357679848662   -3.58918081850328    2.49504948058177
O         4.30335242445651   -2.97205439373637    3.79626254329628
C         3.81017694752199   -1.73855309694279    3.22925694207438
C         2.47108178834450   -2.19870827496206    2.60161408499214
C         1.34766486479163   -2.08616922931243    3.63565240366094
O         0.01016570271966   -2.35072304342589    3.23322076348371
C         2.85125235834837   -3.62660072032907    2.11067167388028
C         2.17698593064614   -4.85624407608713    2.70910706629987
C         6.17992893375195   -1.03448577652767    2.89388381423414
O         7.11470183841569   -1.82739198676609    2.98807868188930
H         2.31519725746226    3.26375617002796    1.02325387018922
H         3.38503474782993    3.16545630215901    2.38422081813572
H         2.14300097980699    1.89128029523307    2.02726407447171
H         4.67784778403299    2.49576282925300    0.38890517765662
H         3.25405423573494    1.39253907469632   -0.08510914148476
H         3.76686004934152   -0.82239014546077    0.45779756882177
H         6.51516457660128    0.35597141281850    0.48924164013546
H         5.52338177389674   -0.23980684202394   -0.91216275424888
H         6.36036881107101   -1.41356264786321    0.06466342452264
H         4.74349509131614   -4.59727442751114    2.59937149963764
H         3.83417387514907   -0.96439820562248    3.99817004331396
H         2.23027438004943   -1.51467265458244    1.78141254295470
H         1.35579330399054   -1.12685818312176    4.16561771462410
H         1.59124473416541   -2.75203592919781    4.46858760533048
H        -0.25605651403265   -1.61107387700327    2.66142473988124
H         2.63195282071281   -3.60868488949233    1.03579023258446
H         1.96686000672473   -4.79340271180782    3.78102331588413
H         2.79212900517688   -5.74561011598199    2.52788677242518
H         1.27843000329777   -4.94482909539286    2.09112521589593
H         6.17476124051487   -0.05439997771749    3.39660159722068
