37
 energy: -56.176647554146 gnorm: 0.136490599837 xtb: 6.4.1 (79825abcba525fcdf90b791dcacef51065a7a4e7)
C         2.79768796927727    2.47714468677225    1.33814927055179
C         3.96095743020126    1.68447586566255    0.77116640727519
O         4.17970441285409    0.59770206816440    1.67315935350904
C         4.59810437937058   -0.63343233189742    1.05686060321917
C         5.92135574719731   -0.41825936294499    0.31007913135284
C         4.96353039834526   -1.65331197102074    2.15816280551425
O         5.14421548006522   -2.95619408190534    1.56838870152019
C         4.26587583926087   -3.72749691588380    2.41204874706857
O         4.40365062973615   -3.11741958024060    3.70963794138008
C         3.91916239658521   -1.82840183275349    3.27380855890353
C         2.51765456776095   -2.16515245096963    2.70703787198493
C         1.55584290350195   -2.10613341235373    3.89674411574238
O         0.25414686361609   -2.41153147568106    3.41387414550303
C         2.84407745670800   -3.46113292248399    1.90809253820039
C         1.92218919271373   -4.64918842144203    2.15994381784032
C         6.24305657006704   -1.23353767814663    2.90051486300432
O         6.43308866913954   -0.05351984096289    3.18829778905580
H         2.64436373943173    3.29423517961438    0.62624149795612
H         3.01251262021699    2.89856584941648    2.32594111762329
H         1.82641916771960    1.98119319558082    1.42673568754303
H         4.89926770968520    2.24232323077155    0.71544860029472
H         3.61386797466623    1.26444299112720   -0.17855215967867
H         3.88324491532925   -1.14134774567744    0.39894486828461
H         5.69331261374654   -0.13152962611472   -0.72129226339236
H         6.46919946710140   -1.36505050401138    0.26656091559033
H         6.66024959997111    0.28348805841168    0.70692688281475
H         4.59394235387864   -4.76970487782130    2.37539176678645
H         3.92067564596623   -1.12202044060481    4.10575929988116
H         2.10884565024949   -1.32261160060889    2.13991911350060
H         1.64809768468989   -1.12593257315114    4.37830652888137
H         1.87015765629892   -2.83621048614889    4.64819894957621
H        -0.36263043851804   -2.64285284024524    4.12870422102882
H         2.80539034075862   -3.35412423865982    0.81683829885751
H         0.93297727541723   -4.36436983440516    1.78920868085553
H         1.87830885112431   -4.84542521645421    3.23780252089535
H         2.28018866167064   -5.50704234344543    1.58281761684666
H         6.94393533728938   -2.00968658728610    3.24646552600152
