37
 energy: -56.174892861237 gnorm: 0.128818319593 xtb: 6.4.1 (79825abcba525fcdf90b791dcacef51065a7a4e7)
C         3.61084282108889    2.58695959124478    0.61981085597960
C         3.39042667893069    1.74703657400522    1.86437315141395
O         4.48236495978482    0.86931760360172    2.14686030608129
C         4.60274969874633   -0.30045869526319    1.31758019521951
C         5.69660900889664   -0.32322654235269    0.24150884320002
C         4.86396286346886   -1.46392294527900    2.29975929287262
O         5.05634253295062   -2.70619142892172    1.59425134630500
C         4.36445610950092   -3.68372990398532    2.39666181612891
O         4.31331961268552   -3.10076220919174    3.71288660552833
C         3.72182304389808   -1.86794537898258    3.24755089007439
C         2.46317147381764   -2.38925014851954    2.51073901810527
C         1.22220485808445   -2.23847690797707    3.39461409319688
O        -0.01150514868907   -2.43799398312038    2.71712127884044
C         2.89004496719874   -3.79563057968253    1.99663392798155
C         2.14973061261694   -4.94183684996046    2.67702261015970
C         6.17657324364118   -1.35206065942117    3.09287028994426
O         6.96601727860018   -0.41642473195565    2.98001278060868
H         2.81509818452703    3.29769694894447    0.37567821122993
H         3.89558729923036    1.97598384711019   -0.24338517050348
H         4.49986006327892    3.20183836804041    0.78937191363369
H         2.44799255495028    1.24864544015237    1.62323308492619
H         3.16551936389322    2.36601171150359    2.73910198676138
H         3.64417028852520   -0.50446628634569    0.82629448394450
H         6.70120343707360   -0.27596177041512    0.67336603304435
H         5.69546686240534    0.57093419139905   -0.39008858139100
H         5.46483077201681   -1.23809489415077   -0.31093704444956
H         5.02424098378911   -4.55337325016391    2.45643790802498
H         3.65648748639911   -1.10643312911743    4.02662043444655
H         2.28603034908750   -1.69854875798746    1.67997062540035
H         1.28494078033677   -1.24442884561817    3.85193196953470
H         1.13413709042247   -2.90055228759357    4.26086516571710
H        -0.14396367755395   -1.76562412363890    2.02771620170159
H         2.96761339408857   -3.73605834207804    0.90383126441181
H         2.44496047888614   -5.08298601468645    3.72106409770970
H         2.38401552332840   -5.83428659024388    2.08469010783021
H         1.09031434631038   -4.73048184031534    2.50347762439304
H         6.36860312672162   -2.23391120462438    3.72436389777566
