37
 energy: -56.174798257943 gnorm: 0.127309592651 xtb: 6.4.1 (79825abcba525fcdf90b791dcacef51065a7a4e7)
C         2.73762429712150    2.40759122933471    1.89211181123041
C         3.70063414274595    1.63171427898042    1.01255723124331
O         4.32290057679311    0.58903571440542    1.76629770484320
C         4.70692297957298   -0.57131641042795    1.00690034722897
C         5.87167189210554   -0.22184780836746    0.07084062943459
C         4.99343500608866   -1.64230293589196    2.08275160253010
O         5.04055432554244   -2.94989980567930    1.47781144438447
C         4.36715464713905   -3.81112416612772    2.41747964618472
O         4.41767451578690   -3.12242555147975    3.68162201622352
C         3.95899067597984   -1.83876030832733    3.20407041032825
C         2.64222033973750   -2.25569150045190    2.50325768992783
C         1.44628394505436   -1.97549934457006    3.41714739109399
O         0.25493999185829   -2.09488659643016    2.65079874871746
C         2.85586161346815   -3.76213540317489    2.17247810070605
C         2.02060413685232   -4.73608177232713    2.99622341363545
C         6.32473736239853   -1.33924017740433    2.79005018450938
O         6.52263814942490   -0.17758356460526    3.14042499876897
H         2.44035763732931    3.37244010322000    1.46943338497872
H         3.18086268769119    2.40558316484327    2.89361760616812
H         1.77835824113685    1.90892377118140    2.06039110224406
H         4.43227306063321    2.31541937444571    0.57440637550593
H         3.19403292392054    1.27180973547452    0.11106514257435
H         3.86922888671252   -0.99247605440769    0.43879084070386
H         5.58739599191282    0.34191970159884   -0.82319402424515
H         6.30551820513863   -1.15754086144178   -0.29616880115791
H         6.59989990123516    0.33184395875712    0.67001598293135
H         4.81811501186463   -4.80584178931431    2.46585742303537
H         3.81894528154890   -1.16628033674551    4.05217239300120
H         2.47955588552256   -1.72410814049712    1.56008065432676
H         1.61212048881099   -0.91239733629895    3.62576033303242
H         1.42536730020184   -2.59015503557224    4.32171996600585
H        -0.40983855125109   -1.46821995882032    2.98285938517956
H         2.61064297211986   -3.98953485742975    1.12751844461182
H         1.00103598088506   -4.58609930688432    2.62867419628260
H         2.32821684295657   -4.77263146109530    4.04800870197475
H         2.31310454407572   -5.69787663034080    2.56431394066956
H         7.01129728922110   -2.19734630302818    2.86494606830573
