37
 energy: -56.170378396216 gnorm: 0.127086989986 xtb: 6.4.1 (79825abcba525fcdf90b791dcacef51065a7a4e7)
C         3.60093260442901    2.87396729734762    1.12239436663070
C         3.04681724376879    1.46200444329712    1.17041850425911
O         3.82168768228360    0.44949048674528    1.81610424962503
C         4.59277650889234   -0.55428035708968    1.13167696498006
C         5.89639668338612    0.06839674970344    0.61415999578894
C         5.03961260183366   -1.58337820805129    2.19368087710632
O         5.18298053290753   -2.85111031815282    1.52264932653880
C         4.30102281616109   -3.74768113512678    2.22725007599417
O         4.29765854450210   -3.21498431171519    3.56558364803739
C         3.92743645798132   -1.86257494101527    3.21893200392111
C         2.57382590412094   -2.10223286127484    2.50537978283643
C         1.49916968790294   -2.17671028223700    3.59328282955531
O         0.25193525049241   -2.50034520511103    2.99285742087518
C         2.84894552336348   -3.47456026750910    1.82313520820530
C         2.03794137620066   -4.68925667408281    2.26081984690140
C         6.32881231808058   -1.50145060088646    3.02778890297414
O         6.75208387686098   -0.56838610178717    3.70720417720725
H         3.93431550401747    3.18059681078142    2.11878387360310
H         2.87768148936218    3.58258374200945    0.70496327525979
H         4.45293381486356    2.89838072252219    0.43633573994109
H         2.77186107315366    1.11085984311715    0.17251023928968
H         2.09446504849535    1.49762425125848    1.70951087477137
H         3.98394791199346   -0.99501843047778    0.33359619239052
H         5.80192801853246    0.53709969369394   -0.37038953865164
H         6.58958443536212   -0.75120981001918    0.39927428303562
H         6.21603863631144    0.82801011456917    1.33299117886747
H         4.68533387345423   -4.77093511699338    2.20663179354443
H         3.85478384843543   -1.05981138876844    3.95473856563033
H         2.12272222054413   -1.32987621070378    1.87403662017767
H         1.55622577569893   -1.14333847610071    3.95396872561253
H         1.62754984549061   -2.92631765825942    4.37947491232446
H        -0.42433342018640   -2.68438297375560    3.66642748961456
H         2.70653646356608   -3.32112915980106    0.74611991688695
H         2.16223861315079   -4.74829665305368    3.34625564437051
H         2.44335858081191   -5.58972928576697    1.78437497234173
H         0.95866406869938   -4.69013061673525    2.08106624966543
H         6.78723656294367   -2.50241529293424    2.99261870625707
