37
 energy: -56.179285645187 gnorm: 0.123061561988 xtb: 6.4.1 (79825abcba525fcdf90b791dcacef51065a7a4e7)
C         2.86578561893923    2.24315545443788    1.71242784118249
C         4.10600968607837    1.68220137235504    2.38337049198889
O         5.14108870814760    0.99241670485260    1.67957553904536
C         4.74436464792208   -0.25268766914742    1.07716394653347
C         5.81332067058377   -0.54115537068814    0.01457485698587
C         4.83927819121929   -1.37252588708300    2.13712196408345
O         5.21045487637928   -2.67548078503471    1.64465997305089
C         4.39461297511746   -3.57396276146572    2.42265932512791
O         4.13485802924620   -2.92539480864763    3.68234220280815
C         3.63168435528202   -1.74885668116599    3.01240404012484
C         2.50398630754658   -2.31255334347555    2.11273887664208
C         1.21647367590275   -2.01770672119413    2.88691107437326
O         0.11862690588115   -2.71550760251152    2.31363071234310
C         3.00598118719580   -3.75320551979569    1.80136544247710
C         2.23933128365620   -4.88928377083847    2.46946503092072
C         6.04099249561083   -1.00772833211711    3.02441547393109
O         6.02717910864993   -0.86844164687195    4.24580064081771
H         3.19329456441045    2.94660622187257    0.94051283495488
H         2.35922302720134    2.93494331823081    2.39382497302955
H         2.16200017062894    1.55254795731556    1.23816436454386
H         3.79055749553109    0.92975849124355    3.11072457645425
H         4.62131623216136    2.52587857823174    2.85404235158541
H         3.72912403653770   -0.16751002504552    0.67233495102431
H         5.54807577993699    0.09485551522041   -0.83576617549185
H         5.90674661375991   -1.60006941281452   -0.24698333143343
H         6.75293198881998   -0.12178355597726    0.38492546054531
H         4.96596531715618   -4.50282346432719    2.49975090445957
H         3.27411966683820   -0.97788139462095    3.69714020360492
H         2.34539305465277   -1.76480183533323    1.17815876490602
H         1.05194092562508   -0.93457700953992    2.91799158004480
H         1.29009212129162   -2.41336114675412    3.90402885216767
H        -0.29986970053202   -2.14988891516222    1.64292813756072
H         3.02131025629573   -3.84186336155975    0.70789016288450
H         2.32104341754482   -4.90742269714257    3.56038230379864
H         2.54646836499121   -5.86255994599246    2.06869820095710
H         1.17997025715317   -4.70521914451787    2.26691613021622
H         7.01635954942607   -1.11355422320941    2.52363602710800
