37
 energy: -56.178718580089 gnorm: 0.133396688357 xtb: 6.4.1 (79825abcba525fcdf90b791dcacef51065a7a4e7)
C         5.30541440458189    3.09884020975736    1.22214193605591
C         4.19937293665557    2.06508033757735    1.32703268065422
O         4.91228809259552    0.82747974794540    1.27589001803132
C         4.07627530700074   -0.34369601531314    1.27802558917906
C         4.03185261291523   -1.02307484934287   -0.09727334859549
C         4.58277248177786   -1.25053492528223    2.42155566186729
O         5.26447967268274   -2.42766132211643    1.94444858671055
C         4.63856651956860   -3.57460486859427    2.55346753757274
O         4.17789696559200   -3.06922943980496    3.82125821840036
C         3.49869945713948   -1.91004130225271    3.29095975152055
C         2.41308175058793   -2.59372373399570    2.42328081021802
C         1.24945890751168   -2.78413739940680    3.39985154935113
O         0.04076928227499   -3.25940669941559    2.82189614316253
C         3.27311287294114   -3.77679941841238    1.88932448218091
C         2.67904576832214   -5.14253522691760    2.21587142253038
C         5.59517355666427   -0.44595776214959    3.25353158802583
O         5.24087697574453    0.49787474981235    3.95711345302564
H         5.58309356955520    3.20337455937193    0.16861228693254
H         6.22355041515578    2.90103091983778    1.78550319859856
H         4.86403528116731    4.06135342111765    1.49769829885210
H         3.53686488722286    2.17648383767186    0.46482813229909
H         3.70404202589554    2.13195858211182    2.30121883028394
H         3.07865110359499    0.00194985017093    1.57320373545248
H         4.10810390002966   -0.30567381291561   -0.92035661167286
H         3.07474896469103   -1.53879841008718   -0.22542112754513
H         4.87969783284281   -1.70974033974266   -0.17177635526614
H         5.29540434170401   -4.44007890421950    2.67465986362092
H         3.19138144848357   -1.25733419157365    4.10989081465968
H         2.09910056033457   -1.92436307773589    1.61581833879330
H         0.84893705266379   -1.87823919062941    3.86903986210671
H         1.64757882989391   -3.44756928955420    4.17305871946586
H         0.26800063654966   -4.12562014224935    2.44381409426629
H         3.48611357412326   -3.58829630220799    0.82966384874961
H         1.79038319889867   -5.33259367148923    1.60655786124334
H         2.56123588555391   -5.19192324544093    3.30485967218566
H         3.45007666548468   -5.90178016618805    2.05397606678572
H         6.64510646667450   -0.54761934800647    2.93631579092902
