37
 energy: -56.182840706234 gnorm: 0.115028818777 xtb: 6.4.1 (79825abcba525fcdf90b791dcacef51065a7a4e7)
C         3.05257886157838    2.50530271230127    1.94005904361359
C         4.18895609207445    1.62441927954076    1.45458975144279
O         3.64753827145180    0.30757274917267    1.33089351046306
C         4.51505651496121   -0.72826590407812    0.83589353995768
C         5.62757878693427   -0.29637314868717   -0.12885459590777
C         4.98801696872065   -1.59998055695050    2.02036775323105
O         5.17876949670460   -2.95179235275640    1.55754949362091
C         4.31855353336164   -3.70741636218591    2.43345571828159
O         4.38595475491013   -2.99093594946474    3.68126454474695
C         3.88786810982721   -1.77526583740429    3.08101565686119
C         2.48183489753968   -2.22716845556801    2.61442288637657
C         1.45168185112772   -2.21891928395668    3.74697863566294
O         0.12476827147292   -2.17257484542594    3.23904506739161
C         2.83354093926729   -3.64049093876948    2.06373842341994
C         2.10971706968910   -4.84250386436415    2.66041828516860
C         6.31825949488067   -1.09774358848977    2.60577111526425
O         6.47599938411152   -0.05076568137557    3.23053402145306
H         3.41147125402079    3.53858496048098    1.90156338243589
H         2.81261043008755    2.21061048545929    2.96721521689170
H         2.15247156832855    2.26627333344770    1.36573305845129
H         4.95528273397745    1.63970901822173    2.23384198119468
H         4.53195391957665    1.98144942614592    0.47799053661364
H         3.85550635151253   -1.37636561883320    0.24698302789819
H         5.19648523107782    0.48013613297483   -0.76849218442208
H         5.93060866286193   -1.13218764497458   -0.76762455089609
H         6.43666967365079    0.17023003633318    0.43996445357630
H         4.81666847871906   -4.68056870127044    2.43843986109057
H         3.82692257591420   -0.96994199836364    3.81508524442213
H         2.18183179612420   -1.59182226848962    1.77480578652036
H         1.63366069990714   -1.39644765294782    4.44814274062831
H         1.54526496194044   -3.15556266506817    4.30414292627124
H        -0.05979604273276   -1.50947838096951    2.55264507977538
H         2.83952743681828   -3.51029812947945    0.97433612200383
H         2.18566527576090   -4.81961231629353    3.75166263801977
H         2.54340847639719   -5.71185737642709    2.15213687845609
H         1.04636153889021   -4.81433358001379    2.40422875100328
H         7.09361201043718   -1.65131662377966    2.05286477348941
