37
 energy: -56.176991310663 gnorm: 0.124111970207 xtb: 6.4.1 (79825abcba525fcdf90b791dcacef51065a7a4e7)
C         3.16268992225624    2.23801906073149    2.51643348860674
C         4.18974868386115    1.40215725684654    1.77516793972408
O         3.50315061878815    0.31250073151090    1.15569189801998
C         4.43287455862755   -0.67313125319655    0.67121528195709
C         5.61218992946690   -0.11342343260365   -0.13557995539932
C         4.90143909248522   -1.59364600324491    1.81997857028621
O         5.02779847605512   -2.93399136474849    1.30472131411545
C         4.40160196770365   -3.64859694415677    2.38886506577057
O         4.56900386737267   -2.84224271243375    3.57067868801937
C         3.90053490850458   -1.70486131726521    2.98266874990566
C         2.52419241142231   -2.14695793446387    2.42671358062255
C         1.32472470047261   -1.94746500318601    3.35700691742021
O         0.21506156206984   -2.46177452450047    2.63245366591033
C         2.88052439851605   -3.64681609837611    2.20788945530100
C         2.23435204587167   -4.55536959799675    3.24797347873885
C         6.24367323600908   -1.30526831362413    2.51260408562536
O         6.54456066097786   -0.31105693573451    3.17016306258962
H         3.60151056459692    3.22524457296286    2.69187607778954
H         2.80937582231110    1.82085862279816    3.46544585774250
H         2.27661901040322    2.40915211968069    1.89774912929226
H         4.93328929026770    0.98388046896186    2.45848063153150
H         4.69077851627901    2.03444380521698    1.03486604677842
H         3.79674253407634   -1.24190726874439   -0.01703259921848
H         5.18866811929897    0.53946210745653   -0.90519954617327
H         6.16848732459579   -0.93955734157920   -0.58997627071589
H         6.30608370483000    0.54464013348318    0.39485899273227
H         4.94974983783430   -4.59448353018476    2.38772392678029
H         3.75928988368906   -0.92592769798848    3.73395516824354
H         2.25564037408139   -1.69844457415240    1.46476810432593
H         1.19728864366055   -0.88171457586458    3.57868929964113
H         1.45411897152407   -2.35071694648472    4.36553835873466
H        -0.26587550773967   -1.79751828232705    2.11056379947833
H         2.67202086337405   -3.91774395543538    1.16534076880937
H         2.43036469477399   -4.26489032619460    4.28446140884185
H         2.49871333014668   -5.59903578140694    3.04039755164173
H         1.16347959539285   -4.52818069711516    3.02516281673928
H         6.75886647415087   -2.26611033494264    2.66969833027425
