37
 energy: -56.175945293232 gnorm: 0.118005489786 xtb: 6.4.1 (79825abcba525fcdf90b791dcacef51065a7a4e7)
C         3.67599767817905    2.87405638460072    1.04070506758470
C         3.97889811431267    1.70424462099061    1.95873612676496
O         3.39739760658374    0.51686957608900    1.41604241965797
C         4.19896175539452   -0.55255148144925    0.88274314979338
C         5.27475796486599   -0.13987216237860   -0.13083192509461
C         4.72646182442985   -1.46212030706113    2.01454942478517
O         4.96875192628613   -2.79476196558992    1.52125018335881
C         4.54519227375618   -3.70574750916910    2.55510386146424
O         4.51259570845122   -2.93956368017127    3.77445359838347
C         3.80672906587541   -1.82100412963165    3.19409192460291
C         2.51085534540166   -2.46143727217390    2.63784475608366
C         1.36682090868088   -2.36523774168219    3.65071037045604
O         0.13926350458283   -2.96759490841927    3.26197828675689
C         3.05918749587847   -3.85607874289721    2.21507058695090
C         2.50523343131251   -5.00281575997946    3.05346908899922
C         6.14479049741693   -1.01074581441908    2.40067004387863
O         6.56680472795128    0.05468619507203    2.84579017815840
H         2.97421102750250    2.59898773472853    0.24711159280164
H         4.61843084711679    3.24608515038668    0.62490165296844
H         3.21403232727508    3.75546001693166    1.49556127619206
H         3.60050511993340    1.97711374757174    2.94721248732775
H         5.06632400477041    1.62771170157507    2.06126272909861
H         3.36291487003892   -1.05950972696942    0.38688611480592
H         5.66943797482484    0.81029903416954    0.24246012189654
H         4.90555852248132    0.01558557133763   -1.14963745115155
H         6.13014255104421   -0.81930520291251   -0.18172062299875
H         5.18836842849676   -4.58227437389002    2.66996859537228
H         3.67304726505130   -1.02582932936458    3.92958171254959
H         2.15833260446684   -1.99223946521884    1.71361282649266
H         1.22470417960622   -1.28467672315958    3.76645887950830
H         1.60048643166682   -2.87542228734580    4.58964744243101
H        -0.45642559081263   -2.37343251718970    2.77511957404316
H         2.86478615334869   -4.14559641037948    1.17479609295967
H         1.41694801550328   -4.92035479202181    3.13054980411376
H         2.85223240843712   -4.77327591122737    4.06792309196982
H         2.87749581208887   -5.95570587727397    2.66543201006110
H         6.84670290884559   -1.78482410953475    2.05218500107169
