37
 energy: -56.167765825549 gnorm: 0.136080860254 xtb: 6.4.1 (79825abcba525fcdf90b791dcacef51065a7a4e7)
C         3.54959385933609    2.83085096463005    0.95113419719904
C         3.12125270132999    1.39694616608853    1.20298762133791
O         4.26192457038093    0.76687601531601    1.78984202599130
C         4.68487547617871   -0.49542486987907    1.24368857818303
C         5.78885101843048   -0.36629333574863    0.18560579545706
C         4.97377685151401   -1.52581464687352    2.35786544069486
O         5.22871609495975   -2.82239902215210    1.78179485177876
C         4.30363382079897   -3.64398265271906    2.52164212364863
O         4.25867288785320   -3.10911043769919    3.85835608053284
C         3.85720428223200   -1.80758956842308    3.37761786584612
C         2.50560585386522   -2.16646586536800    2.71185238446439
C         1.28829859310322   -2.34766071733203    3.62251001979408
O         0.07021001490984   -2.44830891524800    2.89658018919054
C         2.89165548657700   -3.47049015809379    1.95361938311859
C         2.01866326249750   -4.64959913628846    2.36879346952610
C         6.16658805238758   -0.96992579247709    3.15327306313235
O         7.30872581466542   -1.18638828384974    2.75322477216097
H         2.65566414535385    3.43248595522714    1.14318334268320
H         4.03350188782318    2.93562324071050   -0.02576597720028
H         4.21533446640383    3.19217166536629    1.74070073393265
H         2.98921392363581    0.91179906741680    0.23246075891250
H         2.23213296315062    1.39830780172524    1.84199333117888
H         3.81912916763666   -0.89024696205655    0.69921260169205
H         6.48796456337434    0.34834566919320    0.63111214557855
H         5.29264908204536    0.05658494556985   -0.69382449587914
H         6.27444313984196   -1.33904629277586    0.06790411790683
H         4.64562981648818   -4.67421269684289    2.65138652820383
H         3.72384001787201   -1.07305700964811    4.17373022653375
H         2.20932020170368   -1.32718661524098    2.07431912003763
H         1.20887283707625   -1.51275212917088    4.32807800847190
H         1.33517490466094   -3.28394697964251    4.18612452478614
H        -0.03927408206977   -1.94473059013437    2.07236665365836
H         2.90799300411492   -3.40110674748772    0.85876669717758
H         2.47845798364182   -4.96143252373943    3.31137245623664
H         2.16049740221395   -5.47064115965968    1.65606152486449
H         0.95518315532322   -4.43867320381624    2.51600739156680
H         5.96238273133911   -0.59687325913310    4.16936953568055
