37
 energy: -56.173350919465 gnorm: 0.120828433103 xtb: 6.4.1 (79825abcba525fcdf90b791dcacef51065a7a4e7)
C         3.95727673082439    2.69669118594086    0.71236398788477
C         4.30866138505916    2.21940226329629    2.10940134460219
O         5.05484495440493    1.01654145285023    1.91228524893244
C         4.41460719607609   -0.18521688726895    1.44704648923263
C         4.91720084844481   -0.54017352635123    0.04120810897034
C         4.77164014193077   -1.31877703265778    2.43402473836763
O         5.31542053257416   -2.51107647335526    1.83343558716224
C         4.44622406891393   -3.56794862839767    2.28694369497335
O         4.20139869692335   -3.20522860982283    3.65931707427379
C         3.63577165003308   -1.93501383909161    3.26833967163573
C         2.39419132187296   -2.43049038839786    2.48614055777784
C         1.19015925063038   -2.81663358595521    3.34937057145250
O         0.04856612121553   -2.63799142174818    2.52130290105050
C         3.06574177508789   -3.53938904189644    1.62370523077597
C         2.54111463360925   -4.96852329091189    1.53929815994220
C         5.83975922565087   -0.98066130297983    3.48725009798946
O         5.60404552788565   -0.54310428745416    4.61168605631390
H         4.83850993229637    2.43091566352718    0.12012308542796
H         3.72226398465856    3.76274998256619    0.62424014476697
H         3.16456987426380    2.03803828750594    0.34498037347727
H         3.46926888548916    1.94483352650331    2.75341732107498
H         5.00246090951965    2.91433937317978    2.59372427090243
H         3.32603779139220   -0.06194572059724    1.40610616858433
H         5.03349164454838    0.32048401154131   -0.62489219520361
H         4.19363671967285   -1.25833619778296   -0.35771214756319
H         5.88508248296354   -1.04521444853198    0.10477319130718
H         4.87922425282626   -4.57116439819703    2.32212558585689
H         3.41923599196227   -1.24838152998327    4.08856365894211
H         2.13934302188197   -1.59173293705240    1.83027335580730
H         1.15067180083463   -2.07691048469396    4.15711896146497
H         1.21627294971026   -3.84990303298420    3.70736914972872
H        -0.62421411930200   -3.14205064235139    3.00935710197732
H         3.22359813112914   -3.10530651420119    0.62849816832119
H         2.70504269156082   -5.51014019712660    2.47571959337109
H         3.06422617456291   -5.48023372205157    0.72276861618083
H         1.48321148655340   -5.09688659822279    1.29127516130667
H         6.87399749404613   -1.23123139034584    3.20284564817602
