37
 energy: -56.182282847975 gnorm: 0.118341704266 xtb: 6.4.1 (79825abcba525fcdf90b791dcacef51065a7a4e7)
C         2.98658422769181    2.19038668605049    2.42886989393218
C         4.12234554758390    1.46799534533928    1.72802309533449
O         3.58876729689032    0.28577465497423    1.12788371154649
C         4.50369389661866   -0.74477685714162    0.71382156721632
C         5.62498327944052   -0.29122358006888   -0.23062305064838
C         4.97450869930783   -1.61625363701825    1.89932517649432
O         5.11130441944437   -3.01822853233605    1.59316230039223
C         4.35031687792442   -3.71077418447607    2.60283023622732
O         4.38067774627804   -2.80734853090869    3.72435343171499
C         3.93768908963369   -1.61757222317205    3.03556010243836
C         2.60810984360483   -2.09646764004175    2.40173644442435
C         1.52504067812070   -1.89726039683670    3.46533578645081
O         0.26144469721839   -2.46128290905897    3.13968601079927
C         2.90235863916848   -3.59848761649281    2.11575635706333
C         1.97306744300163   -4.64346318812918    2.72339675805415
C         6.31226126071828   -1.15736462200287    2.50291710183038
O         6.44770913445403   -0.04995808188691    3.01932579046492
H         3.31227467478218    3.18297642222863    2.75544180999030
H         2.63937309483991    1.51921788075327    3.22162144622834
H         2.19857245260386    2.45758143499906    1.71836097240026
H         4.90806038262575    1.25355443643844    2.45698923008593
H         4.53833323724772    2.07895579924556    0.92022013385216
H         3.84710484363468   -1.41725385982105    0.14944515149434
H         5.35045637867196    0.18033858457236   -1.17941630934296
H         6.36420468351963   -1.07272434485000   -0.43371980723620
H         6.34480817089058    0.40526546885572    0.20830385040345
H         4.90544880356653   -4.63834872576559    2.76593397260898
H         3.98005606577204   -0.82000207374745    3.77933823162674
H         2.28511206481650   -1.57503296346476    1.49487271013506
H         1.31329848745278   -0.82682187712810    3.56796920371286
H         1.89241245193929   -2.33351508349844    4.39872236411524
H        -0.03680882010165   -2.05083880659683    2.31053805594458
H         2.87431836840246   -3.73142761786357    1.02703045833087
H         2.36139256536697   -5.18290371242577    3.59248473384437
H         1.69797047164286   -5.45407025198356    2.03823137905714
H         1.02913802307168   -4.16057843365257    2.99352856438478
H         7.08108864490887   -1.94521936716667    2.54176807525029
