37
 energy: -56.178883733959 gnorm: 0.113568069892 xtb: 6.4.1 (79825abcba525fcdf90b791dcacef51065a7a4e7)
C         4.01246352107635    3.03591984611490    2.06365272047331
C         3.98115251408482    1.94285588922756    1.01140746645543
O         4.19727773793845    0.73152712907781    1.73838155807392
C         4.49458637439050   -0.45396449365206    0.97891345766287
C         5.69535666985933   -0.38326854602461    0.02595547284717
C         4.77110319091571   -1.46817114188394    2.11093842399070
O         5.20248664989832   -2.74024534054044    1.58775782702094
C         4.37186751716740   -3.70797536646257    2.25985997996670
O         4.26676647381754   -3.12652093046793    3.57354886201364
C         3.67846472102450   -1.89266606381210    3.10691616913337
C         2.39130073223063   -2.38207089583180    2.39801139137969
C         1.42710673917791   -2.46604599575879    3.58428455344091
O         0.06475473259087   -2.81472900640874    3.37629144625892
C         2.92368659996655   -3.69921655327136    1.76073314555449
C         2.11815346996778   -4.95893840369323    2.05906207884077
C         5.88986579527984   -0.85867062642240    2.97196317965186
O         5.77298715542438   -0.41443333054953    4.11229905802019
H         3.49461243209731    2.55070507550053    2.89693223331647
H         3.52109897423299    3.97923185420468    1.80249855519959
H         5.00531037649082    3.36357060882323    2.38626490204757
H         4.75267390946706    2.08470078698676    0.25025104440640
H         3.02077138598591    1.87870184592133    0.48947221105596
H         3.56301867996053   -0.59865784692252    0.41935943647988
H         5.27532848767929   -0.00107518613196   -0.90969891228193
H         6.00837206098974   -1.40378056965663   -0.21697787919295
H         6.46314090696546    0.30131713947642    0.39710438203148
H         4.77938204112119   -4.72240420951118    2.26576276070969
H         3.50997134944233   -1.20493641296992    3.93743222501364
H         2.03202140478122   -1.62116358245777    1.69761012278598
H         1.40979161975571   -1.48488683220168    4.07237663129849
H         1.89949054552542   -3.25236931520650    4.18013675837230
H        -0.02216604211123   -3.70437124589449    2.99433946543751
H         2.85150234473698   -3.56130312354578    0.67466100450363
H         1.66847556171346   -4.95188172801990    3.05648193491071
H         2.78988328407539   -5.82388760268047    2.11250073148628
H         1.30910166399951   -5.04992772061641    1.32809850582636
H         6.89504540112245   -0.92532746756984    2.52644003028560
