37
 energy: -56.181036001633 gnorm: 0.119434366297 xtb: 6.4.1 (79825abcba525fcdf90b791dcacef51065a7a4e7)
C         3.68408024468962    2.55723046011430    0.50419307933892
C         3.02675046631484    1.33351264256667    1.11527533635611
O         3.80591666178967    0.51077893847980    1.98621052001079
C         4.75758939847808   -0.32436805101380    1.30252703878492
C         6.04132825317027    0.50782540067596    1.18234074093948
C         5.00735360304665   -1.58844927423535    2.15474395592206
O         4.88456258528539   -2.79113301204602    1.36959646078000
C         4.22121271586930   -3.75686150815982    2.20952876761030
O         4.39111672675203   -3.25999577503216    3.55086058442711
C         3.93926762310686   -1.93189897817003    3.20700868521131
C         2.56102747369095   -2.18852129181441    2.54863700734604
C         1.38642166459367   -1.96623492894261    3.50511797397746
O         0.13387165784483   -2.40925796280119    2.99945698541646
C         2.71469391579640   -3.62429996171085    1.96609328428025
C         1.98045047447669   -4.75141835835522    2.68391889544475
C         6.39826895981997   -1.71219226389683    2.79858118711288
O         6.83021405209579   -1.01305950647858    3.71291707560414
H         4.37758056433004    2.99348884740052    1.22992980425424
H         2.83622948686443    3.20806179772874    0.26535040645023
H         4.19165368800659    2.30680785568767   -0.43220226348852
H         2.58437419692088    0.79781830953329    0.27143936157670
H         2.13950318790675    1.62247072544095    1.68812746037830
H         4.38478770144191   -0.71912854861188    0.35014146421155
H         6.21660949619331    1.01585809354362    2.13582059400267
H         5.81621321227460    1.30139003325572    0.46260576749532
H         6.85380589763177   -0.09616904502038    0.76885253655018
H         4.79189570449889   -4.67710016193892    2.05902773890409
H         3.75895874584226   -1.19886735397887    3.99521699831313
H         2.40133866662265   -1.52600612690702    1.69178424875334
H         1.31634394831092   -0.94416701224099    3.89457050575737
H         1.63464275169858   -2.56738443778546    4.38460431766033
H        -0.02799314604064   -1.77119364554461    2.28420908096657
H         2.42241140709532   -3.63377832401725    0.90861303781002
H         2.33383625874039   -4.75855832611009    3.71937719920005
H         2.16590869883599   -5.71280834529025    2.19041277624047
H         0.91863105859528   -4.49112032581159    2.72791990623434
H         7.05462723025516   -2.44358201254382    2.30100416290939
