37
 energy: -56.186963518053 gnorm: 0.121105130181 xtb: 6.4.1 (79825abcba525fcdf90b791dcacef51065a7a4e7)
C         3.13311158623538    2.27228398486113    0.59992972414724
C         3.41400158421499    1.53559628710302    1.89661060236394
O         4.68028809990807    0.87415501134970    1.93576018409240
C         4.83468935755613   -0.39930646856037    1.28381641157838
C         6.00965862835655   -0.48157299712725    0.30012156090197
C         5.01101027727688   -1.51140069937743    2.34150942858771
O         5.37921248127840   -2.80016868414732    1.81095632399711
C         4.31056655091641   -3.65501099049887    2.26415756200755
O         4.17667673841809   -3.19896561340472    3.62394067077368
C         3.82350820321560   -1.84654981268537    3.25995393810644
C         2.53115021745818   -2.06922466584123    2.43589025873403
C         1.44345695693178   -2.33100408995042    3.48105091730603
O         0.17746259537657   -2.35244130128093    2.83479810520341
C         2.94722267400518   -3.34130931655179    1.64020482109584
C         2.04278442272238   -4.56120539683758    1.77668898765739
C         6.16111516542759   -1.12552107989210    3.28641150824468
O         5.90344064643199   -0.33143902024467    4.18885864874802
H         3.99351604699057    2.91034687457167    0.37512363099350
H         2.27769234992657    2.94187385463136    0.73916152604041
H         2.95584408442096    1.55495748089244   -0.20703832821239
H         2.65050491343477    0.82149372114127    2.21575741805728
H         3.59082167398786    2.21921568133576    2.73342793148107
H         3.97863004787518   -0.62792365264750    0.63825319144494
H         5.95147430645016    0.28997929824786   -0.47400129601981
H         6.11792813683386   -1.45899989638297   -0.18087158076234
H         6.91514847642195   -0.33533472561648    0.89560809577314
H         4.61570299984910   -4.70303144705525    2.20321758239733
H         3.68357325279733   -1.26940729523974    4.17561966400424
H         2.17309265687893   -1.27954158580374    1.76744510361746
H         1.50002931155773   -1.49560038884494    4.18823351149137
H         1.56809142232834   -3.28357886561868    4.00407885086496
H        -0.53928107318353   -2.47398616403445    3.48009742537424
H         3.11281072199817   -3.03673108752941    0.59924561031389
H         2.37154824809757   -5.12941529545375    2.65199364833581
H         2.28790514205820   -5.27119722454035    0.97791418219578
H         0.96983041896590   -4.35949562061784    1.70433916130263
H         7.07959874661891   -1.71681947186730    3.14472815463313
