37
 energy: -56.174324592014 gnorm: 0.123147131678 xtb: 6.4.1 (79825abcba525fcdf90b791dcacef51065a7a4e7)
C         2.76122312878408    2.52171467984993    1.26981671412661
C         4.08535575913859    1.78950372410680    1.15350183093685
O         3.96000372658037    0.43477964884682    1.59114133739111
C         4.60658126823918   -0.67140113665371    0.93625498642080
C         5.83963221428257   -0.28741335677680    0.10733106364776
C         4.96403372654582   -1.62572476340616    2.09731111336267
O         5.12251992298167   -2.95349179145937    1.55888820212912
C         4.31132935145973   -3.77414280371943    2.42297883446748
O         4.48457780512854   -3.12753986159046    3.69844093594604
C         4.00936425175226   -1.82728499121046    3.28643099087214
C         2.58242452297781   -2.14185744134105    2.77287343056688
C         1.53702340169180   -2.19807251231962    3.88998677374548
O         0.25640513369467   -2.51751991348857    3.36195820400094
C         2.84097397636233   -3.51305105369370    2.08192394136918
C         1.89659798687651   -4.68116651234290    2.34354039075287
C         6.29440906442681   -1.20622417842752    2.74430801263966
O         6.20155534013551   -0.26293298510156    3.52722130722871
H         2.82523450834134    3.60343139634076    1.11570845494243
H         2.41406814958321    2.43459955331012    2.30488798446082
H         2.10002922986966    2.02914798739203    0.55052595184561
H         4.79593857046269    2.32481874289804    1.78850909860400
H         4.38569637993148    1.80060105454126    0.10063126957771
H         4.00060868452495   -1.13801242493899    0.15080838607052
H         5.47624404998828    0.04210662925482   -0.87109122767332
H         6.50961996461958   -1.09804261490904   -0.19670289279326
H         6.51973240300002    0.36887764293546    0.65746519321140
H         4.66472373493815   -4.80540520966427    2.50531388541602
H         3.97552850995185   -1.04317605271502    4.04481566130469
H         2.25857073426223   -1.44628380174342    1.99189997563491
H         1.49441416410536   -1.21509719280595    4.37284385557484
H         1.73306004882268   -2.83064708667024    4.76056686660718
H         0.12379093607359   -1.81337872022394    2.70506817751777
H         2.81960189134811   -3.34717766035674    0.99757500200288
H         0.85126918574209   -4.40660279917637    2.51386022652180
H         2.18861375937665   -5.28592036284906    3.21026601787356
H         1.87163474010499   -5.37265534103891    1.49597230655292
H         7.21391529381509   -1.73013418493882    2.43878118483975
