37
 energy: -56.176195396367 gnorm: 0.132120029913 xtb: 6.4.1 (79825abcba525fcdf90b791dcacef51065a7a4e7)
C         3.40482279267531    2.86487369021702    1.63389210965548
C         3.86201681371398    1.72690085195567    0.74003489791581
O         4.12131265110097    0.63289361285936    1.62232319470650
C         4.47069234886448   -0.60969848188790    0.98634102647800
C         5.60369113757376   -0.48820116223163   -0.04153458802528
C         4.85875331209627   -1.48210597694392    2.20078371662556
O         5.16547971071908   -2.79489190024817    1.69039717605078
C         4.39409797047919   -3.69539779140570    2.51028143751064
O         4.34146599832322   -2.98159475083725    3.76033306175252
C         3.74727599167793   -1.78046349997197    3.22138519212739
C         2.42627607692918   -2.24076676096699    2.55660379009920
C         1.34136711845403   -2.12884272503260    3.63103919160193
O         0.04642251337300   -2.55370538507817    3.22674455815086
C         2.92794529659167   -3.63254526262974    2.07110245571943
C         2.16252506871703   -4.79030062567926    2.70238473169543
C         6.03214357748489   -0.81971012101142    2.94164217771301
O         7.09981877847619   -1.38912459183412    3.15892107486325
H         3.58352629335664    3.84862144000180    1.18862444490074
H         3.92074586268230    2.90937353758568    2.59894201009053
H         2.32049497375310    2.83453357116823    1.77703951352619
H         4.80331841767419    2.00613040407924    0.25971574758030
H         3.07336147005664    1.32145104458942    0.09777539576418
H         3.60179751736248   -1.05855989981714    0.49096194101608
H         5.99178448658441    0.52749397324873   -0.16680031381684
H         5.26735804550114   -0.86879976566503   -1.01131022704186
H         6.45094315899928   -1.06314567107034    0.34252859951078
H         4.96070772602828   -4.62975047758145    2.54355678883793
H         3.64160159827265   -1.11952765537089    4.08342679616378
H         2.07332325280231   -1.64644024872406    1.70759036189806
H         1.31762037538130   -1.07864430908401    3.94365136179515
H         1.52250787217591   -2.91409577186695    4.37067176771343
H        -0.21865162690640   -1.99467117305456    2.47699639969275
H         2.81573795384247   -3.68487747136177    0.98093997895490
H         2.58658747587054   -5.07891302686281    3.66881131704187
H         2.28739888461368   -5.71199296316341    2.12177857124724
H         1.08464476644845   -4.64235622179566    2.81830768598176
H         5.63320532737453    0.13596080803892    3.31695723635562
