37
 energy: -56.179376424649 gnorm: 0.121620243171 xtb: 6.4.1 (79825abcba525fcdf90b791dcacef51065a7a4e7)
C         3.37168041305770    2.82658813871117    1.56224440679683
C         3.72906502496537    1.61617849742108    0.71952618250019
O         4.00702859037045    0.54587319134103    1.62489992488876
C         4.58038870041740   -0.63652972015671    1.03859272188825
C         5.82757264938405   -0.49608079978519    0.15553981558775
C         4.93692425507149   -1.53566338902623    2.24316660740858
O         5.16759628956497   -2.86083956454593    1.72482220794265
C         4.26638989437558   -3.72114725507971    2.44997637659743
O         4.26684005890654   -3.10945018185446    3.75410077953255
C         3.82525026635262   -1.82354848879772    3.26655780554042
C         2.47131240334143   -2.26221667266898    2.65559407277698
C         1.50544985177484   -2.40733542336978    3.83458345559408
O         0.19909308522307   -2.56138006058036    3.29556006127201
C         2.89286583298051   -3.49926571250122    1.80917022287291
C         2.03983419322723   -4.73775708607648    2.06068376453441
C         6.16653375420882   -1.06463093114748    3.03731593874193
O         6.58685842052007    0.09035014469257    3.01049818823001
H         3.30822000146500    3.70428644101290    0.91141698287431
H         4.04745655365368    2.91808775216756    2.41923483211216
H         2.43045157947619    2.52267431820422    2.03011532259787
H         4.66519731621471    1.80862554471177    0.18910672122282
H         2.91543909622186    1.43484756908560    0.00959942294856
H         3.74390545583142   -1.18152777878297    0.58568197022423
H         5.57416898944544   -0.38265918837615   -0.90317009862491
H         6.36263934555522   -1.43311254408549    0.34024277373814
H         6.41766989755632    0.37647040244171    0.44937879466723
H         4.65332039785077   -4.73230939041337    2.60164948572319
H         3.78395893313572   -1.15576985121452    4.12881398650304
H         1.99139866653072   -1.44344838821004    2.10976918033657
H         1.55419825223484   -1.45751455905685    4.37925850929925
H         1.75665828696578   -3.15034259995345    4.59703038680349
H        -0.39265916109304   -2.27327299395469    4.01091273668720
H         3.05887806695930   -3.21085712536735    0.76368287279674
H         1.02278519347979   -4.57305058008470    1.69245898409962
H         2.02585596321422   -4.98133299034602    3.12965015254090
H         2.39630649379669   -5.63464484497847    1.54525047850451
H         6.44441237655189   -1.82984988542953    3.77930210477752
