37
 energy: -56.184113302098 gnorm: 0.115761553808 xtb: 6.4.1 (79825abcba525fcdf90b791dcacef51065a7a4e7)
C         2.77210625049312    1.71489549426455    0.89022375808284
C         3.40085133088342    1.38686029386804    2.23188757473454
O         4.69633886201354    0.81187400337636    2.04852555668595
C         4.83186963072251   -0.38831401792083    1.26637804129798
C         6.01594915704691   -0.22002875997766    0.30481061820360
C         5.08834866442648   -1.55915692084907    2.24100752087262
O         5.25506047255197   -2.83223713554202    1.58567834296366
C         4.28149434820253   -3.65104260574340    2.26382099510157
O         4.27607490390518   -3.17327828569437    3.62272711689431
C         3.93483269247697   -1.82809342995536    3.22238436788813
C         2.58078175961605   -2.02286320821895    2.49611650886996
C         1.49021740974663   -2.25479856425893    3.54532633504841
O         0.22405865496829   -2.41532762457446    2.91929407596471
C         2.92711350426690   -3.28323472040484    1.64997886149452
C         1.91247750893187   -4.42133543940021    1.65482176128412
C         6.30594186102542   -1.16708652093190    3.09437256451928
O         6.31089422810556   -0.35122294105136    4.01400042797708
H         3.42125912310470    2.42427800678684    0.36740938518097
H         1.78340004670790    2.11419195598431    1.14022483673088
H         2.56820741700477    0.90924930176956    0.17850892880690
H         2.76373599693150    0.69292009223866    2.78619379472819
H         3.52850905896702    2.28889439791619    2.83926064287920
H         3.95252320533462   -0.38853079793899    0.61169868287658
H         5.94647590738220    0.66507036714748   -0.33528122588821
H         6.06366799768883   -1.00058847733625   -0.46127650594805
H         6.89772001243849   -0.10792484576517    0.94184640056765
H         4.55460714482856   -4.70891607158083    2.22532509249132
H         3.94631850012534   -1.16963902055463    4.09268596961964
H         2.18332251890448   -1.19724512089740    1.89694672439888
H         1.50573327179339   -1.37167817899727    4.19422126655284
H         1.59758549982637   -3.13738218719214    4.18251461448276
H        -0.10928587204274   -1.64017611938957    2.43666852774565
H         3.00560863409200   -2.91328875195255    0.62004592037419
H         1.77690434651427   -4.79666592597041    2.67357262767117
H         2.34904152268634   -5.23753098636462    1.06707144261030
H         0.91573288962120   -4.19846497431745    1.26241822152660
H         7.18327205491245   -1.78405897874595    2.84346067229889
