37
 energy: -56.172137011868 gnorm: 0.130095613061 xtb: 6.4.1 (79825abcba525fcdf90b791dcacef51065a7a4e7)
C         2.05768039251786    1.63257705069574    1.65587270305335
C         3.39659472504272    1.28650255315793    1.03094861371489
O         4.21904837285224    0.46133442877703    1.85870846643804
C         4.79794673350356   -0.64096753818228    1.13733362091721
C         6.09253717745782   -0.34596354021051    0.36792841049030
C         5.12537433699768   -1.64716649510018    2.26290548817972
O         5.36486202930877   -2.94761432085056    1.68891638519095
C         4.34193924070765   -3.73585288006247    2.32958774877029
O         4.25204303166068   -3.25743935933356    3.68529905425468
C         4.02447183721437   -1.88097062226077    3.31141669274312
C         2.71626761626311   -2.04756543924846    2.49919622546041
C         1.56835663417539   -1.80461177802246    3.48267971979882
O         0.51535726835384   -1.30623840973947    2.66802623866249
C         2.90953285664275   -3.45614662685866    1.86439031893724
C         1.90163212592039   -4.50364484066973    2.32446262634646
C         6.43477788652873   -1.24086394786544    2.95922784532908
O         6.78425472429639   -0.18764856052027    3.48835597034011
H         1.75734736460923    2.60839316150984    1.26148601486047
H         2.07446743863533    1.73125658293074    2.74649578406343
H         1.31249034357412    0.91190075506472    1.30587843419765
H         4.01157843401898    2.17510106617004    0.86689965897542
H         3.29191829287256    0.88793761833459    0.01652616701658
H         4.17516102095555   -1.08748878564306    0.35336170038902
H         5.81067314776309    0.22647690621926   -0.52134610904530
H         6.43921651713622   -1.34619767019265    0.08902848820507
H         6.80339751613233    0.16174720762396    1.02581068573225
H         4.70009034076153   -4.76824331249543    2.29692898676520
H         4.13081881419753   -1.32018597706227    4.24164779404163
H         2.54338130136252   -1.31622032347016    1.70303785125524
H         1.82434697007899   -0.95690730837433    4.12849166896089
H         1.25701355967933   -2.68358441571480    4.05448673282467
H        -0.09979504048719   -0.67704110618018    3.08106890226355
H         2.90099805132638   -3.48358860381667    0.76759614133520
H         0.95655894573331   -4.17956082024000    1.87846641250360
H         1.89231447244050   -4.58330415764094    3.41798049253433
H         2.07160472543394   -5.50111357513398    1.90814896644039
H         7.01334637083663   -2.17381877041375    3.04963722624631
