37
 energy: -56.171224977454 gnorm: 0.132407723775 xtb: 6.4.1 (79825abcba525fcdf90b791dcacef51065a7a4e7)
C         5.45367725044794    3.09987889367905    1.22895970769370
C         4.38548964411338    2.02428380227406    1.30009131297557
O         5.03367312158053    0.75214421301356    1.23654714803232
C         4.02012542506044   -0.26717510464333    1.17109625626403
C         4.03587697867998   -0.85964664937150   -0.24442679418245
C         4.52362258259665   -1.22040917125584    2.27761904540138
O         5.25591425272635   -2.40994581586598    1.92162197200879
C         4.57953165418216   -3.51904482623981    2.54656749911032
O         4.26119390463725   -2.95836957940032    3.83467400742985
C         3.52770565800091   -1.85209672858210    3.26511428816332
C         2.35144306925969   -2.58931916839458    2.57826367452707
C         1.21166969499346   -2.88591637329626    3.55648290298033
O         0.10988636424051   -3.47904516642860    2.88186021143673
C         3.16958098645153   -3.78646632680021    2.01088350956458
C         2.68032036419583   -5.20486841306525    2.28207107738110
C         5.42944955618244   -0.33213454162558    3.14648612997223
O         5.03446582788778    0.36199931297609    4.08111941238253
H         5.86881010351103    3.21713084501548    0.22303994775530
H         6.26174204694984    2.82206712136762    1.91403639303207
H         4.96039605372193    4.00578420161398    1.59390868369687
H         3.65796187521061    2.09317212862224    0.48726778756009
H         3.83442281306522    2.05740880745492    2.24565577244811
H         3.01284409090750    0.06883358842319    1.44374570672621
H         4.38093153732880   -0.16993210457919   -1.02107070038073
H         3.07160854062377   -1.16222885799811   -0.66522415237082
H         4.82425244202546   -1.61728302679344   -0.26321401350926
H         5.17009623872194   -4.41621019368965    2.75027481170285
H         3.30475582725901   -1.11316490330931    4.03673091118337
H         1.94786869057213   -1.91587095274159    1.81523100039796
H         0.69028398622991   -2.05521346190142    4.04566250615151
H         1.63880803983430   -3.52586169238461    4.33398760351291
H         0.39515711529232   -4.12498639764114    2.21381351344068
H         3.18010385904168   -3.59419715900118    0.93074216475764
H         1.95525446372405   -5.47683310351596    1.50914088039154
H         2.44358984868014   -5.44793160490692    3.32470848459812
H         3.56729182642884   -5.79724076239827    2.03808686557631
H         6.45811510551090   -0.21745482564277    2.76963627088852
