37
 energy: -56.179325043750 gnorm: 0.122621457210 xtb: 6.4.1 (79825abcba525fcdf90b791dcacef51065a7a4e7)
C         2.91867306452315    1.92716065138131    2.52362213411321
C         4.09473998907705    1.49370946985934    1.66806621758767
O         3.66939177727784    0.30349337479422    1.00099549831668
C         4.63415083877868   -0.70708843082895    0.65670063576138
C         5.89414831718383   -0.32410918443879   -0.13115047671054
C         4.94254974206507   -1.56196236416223    1.90595556050702
O         5.02515699943209   -2.95171789598306    1.53214008519065
C         4.29800503017572   -3.68530283826990    2.53775134608945
O         4.50616950344957   -2.87690890000949    3.71166819441972
C         3.94707019670108   -1.71036602920031    3.06915084034444
C         2.51510894530502   -2.13015804318949    2.65428240281427
C         1.38807291578857   -1.99030164355941    3.68102280133535
O         0.15993075958592   -2.07764972949866    2.97047292626767
C         2.82953587105593   -3.55871073253389    2.12061220333128
C         1.98867938813789   -4.70760382258037    2.66631172423872
C         6.25643805361790   -1.07705436510791    2.54081461752958
O         6.58792359786373    0.10372340187361    2.62598805879025
H         2.79080789315392    3.01268744268302    2.58054271100479
H         3.07871086845769    1.64438543588098    3.56952090507633
H         1.99505914149325    1.49366451281909    2.12840454963561
H         5.02058124341380    1.32520402989168    2.22407720954127
H         4.23451733919104    2.24954231973961    0.88829506034489
H         4.02783665860094   -1.34183413230049   -0.00006131854648
H         5.49160932015649    0.09636795294216   -1.05803013271229
H         6.52728250375819   -1.15293271096999   -0.46376540888642
H         6.49211881504534    0.41335709762166    0.41150638827897
H         4.70805187789698   -4.69457154741191    2.62944142562792
H         4.04210447251944   -1.07043304157589    3.94811230708111
H         2.20009385183776   -1.56476251915647    1.77126660245729
H         1.54744110914076   -1.07240206997685    4.25831747563787
H         1.31867021915658   -2.81269280169369    4.39889933188115
H        -0.04724803783355   -1.32046354555034    2.39719125034830
H         2.83612059962287   -3.62415722382153    1.02541506182312
H         1.90418279733862   -4.70263771063831    3.75715637576739
H         2.54518942845071   -5.58774666967639    2.32300588718831
H         0.97767912453312   -4.75479783782655    2.25061614188673
H         6.90281884469115   -1.92405075258413    2.82029458075808
