37
 energy: -56.183243073658 gnorm: 0.113284857302 xtb: 6.4.1 (79825abcba525fcdf90b791dcacef51065a7a4e7)
C         4.19902906607726    2.71877972530406    0.79338912736451
C         4.48977080138609    2.04367651433416    2.12105405801195
O         5.22739652998396    0.83411554516793    1.93293344547220
C         4.37798678034696   -0.22179758884655    1.44906862940245
C         4.79875399846869   -0.58195332483069    0.01790863077196
C         4.69637040042367   -1.33390626175576    2.47298434443266
O         5.26943319620904   -2.48336655108154    1.81852083721208
C         4.46802337721764   -3.56478576165866    2.33468519774898
O         4.22863156667851   -3.17379242496864    3.70023627214319
C         3.58007305541044   -1.93295335480394    3.34536571696124
C         2.37255577748984   -2.41211295021788    2.50206132628823
C         1.14671068942842   -2.74103611245711    3.35826179032605
O         0.11773282562917   -3.30259539286948    2.55408538519358
C         3.09538179083815   -3.50247440317612    1.65762933562954
C         2.37977815557535   -4.83295677924367    1.45144742896342
C         5.80419211964000   -0.75687715102272    3.36978574030878
O         5.53592787221278   -0.29118202237795    4.47546908610725
H         5.06811636397019    3.20148831431821    0.33552718664062
H         3.43459662520825    3.49915408550578    0.87172853475968
H         3.74405299238313    1.97396352088623    0.13352238664064
H         3.53348694924605    1.87868183410888    2.62406726912906
H         5.16908197019714    2.62927168143759    2.74912945460893
H         3.33378514931784    0.09864313365699    1.54296187881961
H         4.45908428506836    0.17667839627205   -0.69416366886931
H         4.44233883944048   -1.56055229759374   -0.31936325084124
H         5.89132532060015   -0.62857734691753    0.01393114871984
H         5.00539700580525   -4.51492752467807    2.27444387679449
H         3.36073600424293   -1.36177428945949    4.24911608885468
H         2.08644568288142   -1.59848650019676    1.82769012103154
H         0.88166185438629   -1.78591031746428    3.82590569227685
H         1.46811612278379   -3.43557140197196    4.13980509871061
H        -0.68271559971771   -3.31481063426662    3.10548266264631
H         3.28836726414585   -3.04750478426979    0.67806687085285
H         2.26423648370273   -5.54972060967978    2.26998643957151
H         2.92597825112648   -5.45523757809598    0.73266665109601
H         1.33834115165624   -4.69635998099434    1.14501325878353
H         6.75550230582639   -0.96843478667739    2.85639275242586
