37
 energy: -56.178815473192 gnorm: 0.111291176387 xtb: 6.4.1 (79825abcba525fcdf90b791dcacef51065a7a4e7)
C         3.57711131404587    2.64450014215661    1.29664301905539
C         4.35317796214912    1.84115952349508    2.32394710858262
O         5.12715891615486    0.84890779138157    1.64651900749946
C         4.59818884595346   -0.39987283911155    1.16556960732876
C         5.37593212773697   -0.82337143617979   -0.08772230711551
C         4.81904787116393   -1.40109218326197    2.32113813696353
O         5.30611687686282   -2.68773206197032    1.89066839380696
C         4.38682379663616   -3.64502059684939    2.45338488040515
O         4.05628377200938   -3.04254619263913    3.71935562122440
C         3.59086631550962   -1.79523320108881    3.15914152121513
C         2.42616489749140   -2.37591219027963    2.31941718740145
C         1.22100204903026   -2.43261123695288    3.26193181078927
O        -0.05288759485429   -2.41888917170683    2.63116963527777
C         3.05220800906382   -3.66081093629993    1.70173082831132
C         2.39115878602545   -5.03428300424202    1.73876463176540
C         5.85435558857676   -0.66554640835362    3.18808385976559
O         5.58550232535424   -0.15725436141930    4.27469811133460
H         4.26804639985783    2.99787560603858    0.52483192678971
H         2.96999500394125    3.38552795100316    1.82745912384920
H         2.84289337382870    1.96554102361727    0.85266435292061
H         3.68905391971411    1.41923628546833    3.08265943128804
H         5.16366728999746    2.40634635573263    2.79568323103283
H         3.53111654088181   -0.16535880373956    1.07493181359880
H         5.26798191137344   -0.10358621930195   -0.90515768096469
H         5.15369232156827   -1.84033131836631   -0.42660597588214
H         6.43941083430347   -0.82446726000447    0.16705913460878
H         4.93394902733187   -4.58313998575492    2.57890331439822
H         3.42793354384391   -1.06175129402299    3.95070727957899
H         2.02441717908756   -1.63486469359391    1.62079639228632
H         1.14129730374911   -1.51078308792426    3.84937292707995
H         1.31140470169440   -3.23922047286681    3.99521186220213
H        -0.28468023272664   -3.31770299095829    2.34253187985526
H         3.14748243840624   -3.48592257680911    0.62278675527845
H         2.55035631016253   -5.68080171039006    2.60696746142779
H         2.72530275820267   -5.60756260337254    0.86588886799375
H         1.31846509679969   -4.91158010538278    1.56149671101145
H         6.86101511798181   -0.61374502190813    2.74392920773733
