37
 energy: -56.175716994925 gnorm: 0.133909831938 xtb: 6.4.1 (79825abcba525fcdf90b791dcacef51065a7a4e7)
C         3.01386561985014    2.68058698527183    1.53548034116482
C         3.92970943245365    1.78669253823709    0.71989951007533
O         4.34405890332698    0.73355947031491    1.59267901059450
C         4.60351003151089   -0.57977445338281    1.06502978085419
C         5.67010781783763   -0.68104519266751   -0.03364648247300
C         4.92098346514317   -1.51519988710206    2.25277852718649
O         5.23714682642838   -2.80586036237373    1.69401319923849
C         4.42882457251187   -3.70108045132274    2.48353646897991
O         4.43424583776408   -3.06643635629874    3.77663795716307
C         3.81386666341683   -1.86853922765529    3.26048390663870
C         2.44566149132917   -2.25233494214742    2.64439165753205
C         1.41211192131818   -2.25427194998158    3.77387712921741
O         0.13006977131321   -2.49120253326233    3.20724162177478
C         2.96968774392918   -3.58460353531330    2.03211079122984
C         1.98661054319517   -4.71361507747729    2.32137725790224
C         6.24329411770024   -1.09622722703595    2.91643561015572
O         6.43821098104260   -0.02206910309636    3.48173646137691
H         2.85019703837650    3.69545342767471    1.15969241215737
H         3.51125066091053    2.85021506566365    2.49637190411173
H         2.04945075490672    2.16512871245118    1.57269939329824
H         4.80920089012096    2.34511196000947    0.38916266410086
H         3.48087216595956    1.39124087035509   -0.19717581171871
H         3.72252261186199   -1.08821328561353    0.65612101813190
H         5.42078885629445   -0.14979767579934   -0.95752996436826
H         5.78238107134747   -1.73682960428349   -0.30039360973674
H         6.64568254977375   -0.27952245201424    0.25433812869586
H         4.79882042341372   -4.72905270029181    2.44423070164847
H         3.79430985076761   -1.10478090092652    4.03984888231340
H         2.17866767982327   -1.49260194607745    1.90267500152494
H         1.42936245106339   -1.32021489218780    4.34697993639328
H         1.59160080040976   -3.07933926456761    4.46924634098215
H        -0.56659698726455   -2.55996446830782    3.88165475647364
H         3.02566629887002   -3.53781635208791    0.93736847114534
H         0.99468893438838   -4.29925039741137    2.11766219412212
H         2.10315810859000   -5.20232848435379    3.29594876576224
H         2.17003122444538   -5.58803676800205    1.68979575906688
H         7.06856707221637   -1.81370293062025    2.78424931848265
