37
 energy: -56.177563153678 gnorm: 0.119457004915 xtb: 6.4.1 (79825abcba525fcdf90b791dcacef51065a7a4e7)
C         3.73603643136333    2.93853304078108    1.64922083826809
C         3.69695981562557    1.72621360093203    0.73722091372098
O         4.15593583775221    0.66051960471164    1.57158062285824
C         4.39317144372726   -0.65754953084163    1.04528448051326
C         5.47889327826191   -0.64912738845481   -0.03920310418624
C         4.90512675078960   -1.51378827196177    2.22482430473979
O         5.22553900670923   -2.85126406519860    1.79299461170150
C         4.42455468590809   -3.73194169675069    2.60600253213448
O         4.33913671714546   -3.00946094388723    3.84923995748200
C         3.80265933185656   -1.80635548087529    3.25681096266581
C         2.49940259025487   -2.34137214673019    2.61327912905393
C         1.39638440506763   -2.46136147193551    3.66822904050026
O         0.16464399448258   -2.31265219157149    2.97429454905440
C         3.01824377534832   -3.67584129357409    2.00137484354224
C         2.17998496250381   -4.93729150462224    2.17701204821800
C         6.11766319028428   -0.84770694486251    2.89607337167163
O         6.14263742178335   -0.07667358281421    3.85328658836460
H         3.46184716183435    3.90155842954737    1.20722512039958
H         4.73136987153168    3.19199628623425    2.02941274675175
H         3.08880747944236    2.55846445946904    2.44534964650104
H         4.40574164066084    1.90323196699281   -0.07580870489494
H         2.75021813837659    1.38652708795736    0.30460407005216
H         3.51898552251578   -1.08841862818608    0.54328244659696
H         5.15833127352560   -0.42269413417115   -1.06092348929332
H         6.01705300840314   -1.60241671649492   -0.04717827489550
H         6.24643797206276    0.08907649989412    0.20945705719235
H         4.81934444047195   -4.74751643705356    2.69498454649301
H         3.79910271023702   -1.06606055816006    4.05872728065522
H         2.05159293911928   -1.58264443597861    1.96333891741905
H         1.56257722922636   -1.57387220350203    4.28947757153207
H         1.28389391386107   -3.36098104975117    4.28021038211149
H        -0.59113092384657   -2.49053294913412    3.55916082461545
H         3.11796959564109   -3.52023277217141    0.91988322644710
H         1.19518098208504   -4.77548333176446    1.72858633518346
H         2.07257362869504   -5.29086690814414    3.20932061700834
H         2.70200034435250   -5.71978646618750    1.61812637304739
H         7.05889257276262   -1.03854352812447    2.35663968738921
