37
 energy: -56.178492675116 gnorm: 0.118327187571 xtb: 6.4.1 (79825abcba525fcdf90b791dcacef51065a7a4e7)
C         3.49437225279947    2.68736435634631    1.12582674122566
C         3.96200131272657    1.79334404668871    2.25942279541858
O         5.01605112064567    0.97128076608695    1.75374526031178
C         4.66712383006209   -0.30899903564853    1.19723113147183
C         5.45786974986625   -0.58294735855259   -0.08910061432605
C         4.92235977424850   -1.44477978609332    2.21281663292669
O         5.29281176293849   -2.73172900088088    1.67942237224684
C         4.42992843677234   -3.69186919246534    2.32107183949859
O         4.27660180821476   -3.09612083174120    3.62356514496751
C         3.73488968756480   -1.86580952387608    3.09524239263021
C         2.44678539508456   -2.31991794272673    2.36488146125427
C         1.26322493577204   -2.38611234212578    3.33378229765152
O         0.02895118645181   -2.58720695191425    2.65778433847386
C         3.03172329561743   -3.60163544375123    1.70194943458585
C         2.27126694230923   -4.90347287594670    1.92934417800692
C         5.95440213079247   -0.99606057180811    3.26068300391099
O         5.71378176239159   -0.49240449583888    4.35603943400100
H         4.33420450078747    3.25399771724741    0.71162111723555
H         2.76117136111517    3.44870240844942    1.41263500978511
H         3.11614763875088    2.03144421870397    0.33595748924962
H         3.23677359314751    1.17529903890778    2.79495006736537
H         4.33569588503200    2.49421340526452    3.01307959502179
H         3.58823503848521   -0.30785803988061    1.00267285355088
H         4.95452358582541   -0.15378236687868   -0.96111243381830
H         5.68803943209066   -1.65215613557719   -0.13658272501609
H         6.45603213635522   -0.14764439366986    0.01132294840686
H         5.00713184840257   -4.62017725197365    2.33685740691664
H         3.49536357321958   -1.16687532483711    3.89850900346221
H         2.21007653016297   -1.61063594819697    1.56518684005641
H         1.19697106540537   -1.39418857968476    3.79519823880584
H         1.29574818516542   -3.17203471398325    4.09388685153164
H        -0.68323744078153   -2.95761806240806    3.20595294399099
H         3.10167179743578   -3.53280578067875    0.60917632589899
H         2.26933163892725   -5.04948424573562    3.01367960967505
H         2.66353535377898   -5.70632616374158    1.29391845825122
H         1.25856238632457   -4.72549719728081    1.55530437960540
H         7.00307141712687   -1.08020613521208    2.93429012615909
