37
 energy: -56.175600410662 gnorm: 0.123120841410 xtb: 6.4.1 (79825abcba525fcdf90b791dcacef51065a7a4e7)
C         4.43475844275770    2.71420963961470    0.97351318888556
C         3.71685649474170    1.68095492044788    1.82203586310952
O         3.16062452889252    0.45758729885447    1.33572685328794
C         4.07660414199733   -0.54607152533634    0.86220294997667
C         5.18809038413747   -0.12472132262732   -0.10838370817055
C         4.70346378618496   -1.40810177431105    1.98046410975281
O         5.04900129065166   -2.67638746745578    1.38882432445511
C         4.52894620933658   -3.63549298921213    2.33106111664335
O         4.60938818379002   -2.90184044910046    3.56807244084673
C         3.77080723129511   -1.80788161949696    3.13647201316284
C         2.42385229601948   -2.44144634578383    2.70849730511310
C         1.47275283152628   -2.40615835861807    3.90771807821036
O         0.26855705814884   -3.10596149657426    3.62305673499192
C         3.01119488218820   -3.78704224044793    2.19000781628019
C         2.48071191007287   -5.02480104445795    2.90507696821070
C         5.93800978267480   -0.81173411112575    2.67668680948289
O         6.11900337745436    0.38334994543239    2.90116112756191
H         3.99676812947916    2.79927454171094   -0.02592981274310
H         5.47436346876914    2.40259584940282    0.82655607626341
H         4.39586101353801    3.64235156057524    1.55162916564358
H         2.74750993764072    2.02076681894112    2.19569274135069
H         4.39564316484941    1.34681278552319    2.61352923062327
H         3.37444678775900   -1.21050435193719    0.34513495217224
H         4.99588611973178    0.74870027026367   -0.73936452692366
H         5.36478199804495   -0.88547392502289   -0.87550533151772
H         6.12692958234748    0.05782312710801    0.42186169564808
H         5.05009971538749   -4.58801668173207    2.45860112742482
H         3.65771647942349   -1.06867281419504    3.93139329212819
H         1.94209938418510   -1.84493055509194    1.92702013745383
H         1.17679851565979   -1.37165427295061    4.11609114790923
H         1.86051294770805   -2.88859632780520    4.80959743264576
H         0.07966811233444   -3.01490110342544    2.67388086945443
H         2.87705381267494   -3.90844793654046    1.10785708015192
H         1.48728601333370   -5.33550342075458    2.56791912227141
H         2.45341747186567   -4.89377553731963    3.99333295057369
H         3.23764111410009   -5.79110090317864    2.71273784913549
H         6.75029424551432   -1.52996760909638    2.87073484624139
