37
 energy: -56.175135424563 gnorm: 0.130136677429 xtb: 6.4.1 (79825abcba525fcdf90b791dcacef51065a7a4e7)
C         3.01125849186808    2.63170652622286    1.89752730923578
C         3.27369627089470    1.33845292044909    1.14812035074968
O         4.55332532311085    0.79123503156649    1.47311401123731
C         4.78494991818005   -0.54293486090018    0.98637450186530
C         5.95374580292537   -0.50646227075572   -0.00738708057136
C         4.96601056018328   -1.54510390383862    2.14802482293242
O         5.06692127364246   -2.87574465204558    1.60286920790566
C         4.35006281609620   -3.76334173288303    2.48402540130256
O         4.50779213626908   -3.05664907956443    3.72926470742311
C         3.92109370069488   -1.83079725794076    3.24006626672198
C         2.63460991975245   -2.19550056364455    2.45852599303335
C         1.37580389589878   -1.91987580768235    3.28520869276068
O         0.25096979242800   -2.19492453912112    2.46062370009117
C         2.87733999018195   -3.68371546527486    2.07028703493794
C         2.07809660403513   -4.76270478827734    2.79262696666673
C         6.30707477748173   -1.15800702695256    2.79315044393184
O         6.39451131405036   -0.40536069079724    3.76126803135235
H         1.99145820214034    2.95527465451233    1.66672673523509
H         3.69212393273578    3.40149409975440    1.51894111849843
H         3.18524956730063    2.47159647883918    2.96582988764860
H         3.21848045239739    1.65519111833446    0.10344218715157
H         2.52217900465761    0.59332728141089    1.42896487102751
H         3.87809501781970   -0.91802253998528    0.49772465147796
H         5.60721248915098    0.23553496475958   -0.73354087706528
H         6.12317970597277   -1.56070194136729   -0.24886361038068
H         6.80946956127477   -0.07844032133335    0.52217479039717
H         4.92538427833103   -4.69196728554472    2.44126310879599
H         3.75535214104324   -1.13017227661678    4.06029390411721
H         2.50223649546676   -1.61244790031548    1.54138348028137
H         1.34521931489092   -0.87218055640369    3.60553078040430
H         1.26541586990825   -2.60048387293556    4.13437170223675
H        -0.54374134561402   -1.80560390871508    2.86282950152942
H         2.89094959852412   -3.83697082026474    0.98395791534629
H         1.03288739686854   -4.44132985911880    2.82953575989722
H         2.29220731497890   -4.85215417101042    3.86424684423296
H         2.20984297352848   -5.76394185709889    2.37153451524839
H         7.11151431244851   -1.84753465688928    2.49190512152378
