37
 energy: -56.184963821733 gnorm: 0.109830790091 xtb: 6.4.1 (79825abcba525fcdf90b791dcacef51065a7a4e7)
C         5.27243144667622    3.18556469527770    1.22934468839755
C         4.35083396373169    2.01177988937398    1.50480172373324
O         4.98219822474900    0.81415714897978    1.04698325011555
C         4.15725117002875   -0.36482653697129    1.04111427284853
C         4.29599648214767   -1.01041975285687   -0.34414212612514
C         4.54777763244175   -1.23958909339508    2.25307003688426
O         5.25984275367394   -2.45672750784460    1.95387151463920
C         4.59152763698747   -3.51439413422310    2.67000493472295
O         4.19443289013297   -2.85786218919462    3.88910113407573
C         3.48500231132827   -1.79442087545731    3.21675918864385
C         2.38759874476111   -2.60405731518700    2.48255998567160
C         1.21514241500422   -2.92765929990564    3.41239535318239
O         0.06825493483712   -3.19069210629256    2.61470692749737
C         3.25158560513318   -3.79998903599644    1.98486027596596
C         2.70604760778306   -5.14712602893614    2.44572158953466
C         5.44185736396780   -0.43974341515971    3.21502255180287
O         4.94403404698043    0.28995632886483    4.07005679566233
H         5.63126338901411    3.14923780792943    0.19596292707503
H         6.17010771428375    3.05620240779740    1.84328351171213
H         4.84936943453190    4.18892960866457    1.33637695119505
H         3.37746515168070    2.08992209886078    1.01370978663958
H         4.19605375751490    1.93779091891116    2.58620487945342
H         3.12279038873029   -0.03191176807232    1.18573067085399
H         4.10234302939784   -0.08834402128625   -0.90111542986548
H         3.50486298060891   -1.74462109701388   -0.52716182331509
H         5.29033746663552   -1.43977294019276   -0.49528298245650
H         5.38303160035837   -4.25391409609058    2.81765492038743
H         3.16443733666383   -1.09621033807032    3.99191024640173
H         1.93352701873591   -1.99338486278552    1.69546307430691
H         0.94967714273739   -2.08699917572723    4.06356794281847
H         1.44239842914921   -3.75978684775212    4.08500900202337
H        -0.25791958442355   -4.10022468388003    2.72085081878293
H         3.39778151073370   -3.77356312331504    0.89779458694642
H         1.75108243850311   -5.33270361989045    1.94501321558773
H         2.70095448670822   -5.18923480888115    3.54135595593447
H         3.35873465541022   -5.98073912161867    2.16960484104316
H         6.53686549104723   -0.49225497399260    3.10769222251984
