37
 energy: -56.179733090446 gnorm: 0.126412309360 xtb: 6.4.1 (79825abcba525fcdf90b791dcacef51065a7a4e7)
C         2.69702274532174    2.29260594621175    1.69808272335973
C         3.65550269909232    1.55240266888723    0.78353116653765
O         4.50510599624689    0.65833409884925    1.50556609240430
C         4.70620940800252   -0.67945610162399    1.01520968720143
C         5.83125956207425   -0.63567990576792   -0.02753761105075
C         5.02829726972466   -1.51311836800266    2.27529850874669
O         5.25586444364269   -2.84481252949441    1.77251996850418
C         4.36697923256470   -3.69829818793514    2.52058157993384
O         4.30184641203624   -3.08397654333582    3.82184273851829
C         3.95505423163034   -1.76426715628921    3.34819184290069
C         2.62403662149910   -2.08833744992140    2.62554063184473
C         1.46297166748736   -2.12913738158069    3.62265116984706
O         0.21615308062279   -2.30165550761390    2.96195087773113
C         2.97734853703432   -3.43668067085936    1.93158659108586
C         1.95595271299008   -4.54707823364829    2.15192892980966
C         6.33216754383560   -1.12231531919976    2.99061631576969
O         6.34185079002304   -0.19370059158628    3.79619327596166
H         2.15668558246296    3.05489496404576    1.12807476501360
H         3.15381502961995    2.75349381526179    2.58035328323113
H         2.00200005776965    1.53196104423624    2.06624208728570
H         4.33138416566148    2.23616412302035    0.26355149920378
H         3.13527090547930    0.95859035979138    0.02484158240337
H         3.75765218907606   -1.07962051066559    0.63843005702954
H         5.76793130229850    0.16504210378159   -0.77102826377145
H         6.12214411975365   -1.58457669607802   -0.48951281202435
H         6.80088754568611   -0.36699314466564    0.40086722350459
H         4.80682257136127   -4.69892796240210    2.54171693459685
H         3.97862432217897   -1.05402496612357    4.17651514113331
H         2.36238528316154   -1.33796264744341    1.87248037712380
H         1.45827098057824   -1.10987932896839    4.02551333287715
H         1.64338737732170   -2.77842438459391    4.48425852066764
H        -0.49738506682492   -2.15597635109171    3.60580392567427
H         3.07118571393390   -3.37997486792651    0.83990787738887
H         1.09681389236170   -4.30880088439367    1.51772802827583
H         1.67325067671991   -4.59869928286436    3.21005395843299
H         2.28055839331345   -5.52894760173691    1.79455612501567
H         7.14646802921166   -1.82663180662578    2.75786524861440
