37
 energy: -56.172911859327 gnorm: 0.121545944253 xtb: 6.4.1 (79825abcba525fcdf90b791dcacef51065a7a4e7)
C         5.85327105593498    2.95214336122129    1.46912484694829
C         4.60748611315295    2.08755888241497    1.40994020614451
O         4.97131115468694    0.73473492628924    1.12706657129381
C         3.89547401434350   -0.22078051432069    1.13886929159258
C         3.79306980972551   -0.87535698547459   -0.24533414710309
C         4.34637068778204   -1.14960903338133    2.28801112854218
O         5.17909887316366   -2.26051120289456    1.90014191890737
C         4.54102412663498   -3.34892381483189    2.59754385148857
O         4.07719347268508   -2.80548942264550    3.84832526824265
C         3.28857397981503   -1.77580601948509    3.21265693593628
C         2.28577861087075   -2.64874964740115    2.41816020529314
C         1.18291387489194   -2.98542267872136    3.42528805714353
O         0.10266894749880   -3.79238455648882    2.97503548319729
C         3.23276813475223   -3.78433870242245    1.93022652636980
C         2.94004499010712   -5.24368338511863    2.26099708184681
C         5.33029365259470   -0.23905493253202    3.04118515366350
O         4.96670450302756    0.63123067302862    3.82971492945760
H         6.56236849014319    2.76660745582757    0.65628099605165
H         6.51638367391270    2.85276239248978    2.33508283603909
H         5.75244658090009    4.03457338797451    1.34519671323869
H         3.87789255218050    2.41416375192128    0.66445591190161
H         4.24724846933604    2.08308464717311    2.44390001511437
H         2.93842473112643    0.26966995753513    1.35187220117481
H         3.56323465075887   -0.14968695020847   -1.03179670716376
H         3.09101310028665   -1.71418164763276   -0.20140693526590
H         4.75898560157175   -1.38671158165631   -0.28308168060134
H         5.25964009213498   -4.16727118086026    2.69276722166721
H         2.82245645401290   -1.04356564098805    3.87422890839558
H         1.81708138435924   -2.23414401882271    1.51980137886511
H         0.87656016627427   -2.05917705406068    3.92471115794074
H         1.67221194169883   -3.56420845643865    4.21401176882560
H         0.32178383808421   -4.72272272314654    3.15213830810229
H         3.32952868618995   -3.71634838437355    0.83944786766132
H         1.93746616104932   -5.60255936798473    2.00970024052312
H         3.00494314069015   -5.55474866111190    3.31039708508341
H         3.71282547631561   -5.80292518866323    1.72507679807267
H         6.36882930031605   -0.51888231911493    2.80357118840892
