37
 energy: -56.184549231382 gnorm: 0.117828555962 xtb: 6.4.1 (79825abcba525fcdf90b791dcacef51065a7a4e7)
C         3.06333232918642    2.29339782654462    0.94973879259917
C         3.70708666015510    1.50301154576440    2.07395369866962
O         4.95860710095634    0.91513848449148    1.71253889492161
C         4.83353254790087   -0.40187293448985    1.14648952720855
C         6.00624637120442   -0.52477237636879    0.16434179620665
C         4.91652012812207   -1.40341302725088    2.31977026637480
O         5.19574305147861   -2.72785734051786    1.82392329015450
C         4.30808812077216   -3.63204544977557    2.51142852253804
O         4.10881427028631   -3.00068288047092    3.79071942364803
C         3.70436731848976   -1.74477201040720    3.20305166233115
C         2.43986877962987   -2.26120202640368    2.47284780754989
C         1.29996903633850   -2.47761582803548    3.47172694043189
O         0.03031467078010   -2.46230622007929    2.83251854304921
C         2.97633586300063   -3.53758207130478    1.76046588445361
C         2.03747855470004   -4.73662949468372    1.68553158934579
C         6.12787109662502   -1.01116255566849    3.18189129420266
O         6.15883771365420   -0.27393090964485    4.16520399662037
H         3.56314497859001    3.26265422846662    0.85653357500921
H         1.98683084561960    2.46273725584658    1.05904054916369
H         3.22640878180128    1.88120081552550   -0.05060025734398
H         2.98330040075797    0.74327346772987    2.37998611754152
H         3.94887341824380    2.18906176225965    2.89232911936890
H         3.91069255993343   -0.56867337880527    0.57868743917148
H         5.69062389135007    0.00498773850989   -0.73991548929123
H         6.22172733010237   -1.56876668456994   -0.08482457445749
H         6.86284680468962   -0.10123799970455    0.69608989889587
H         4.77356440490681   -4.60988367296700    2.66087098343949
H         3.54257148575360   -1.02334352959389    4.00584806074976
H         2.14036901720533   -1.46276403191863    1.78624736154251
H         1.42548857261773   -1.71072559287484    4.24459899071330
H         1.43439714838302   -3.46855188017983    3.91497122184299
H         0.00072445741101   -1.78218002216633    2.13864634598917
H         3.33382889665254   -3.34624502634016    0.74096981025311
H         1.74313044451478   -5.12720924866550    2.66426190664135
H         2.45176428832513   -5.53439531011354    1.05771729864968
H         1.15737072942940   -4.26889849727396    1.23410102039870
H         7.04126341023269   -1.44865270310783    2.74872053217692
