37
 energy: -56.185352662783 gnorm: 0.103637935196 xtb: 6.4.1 (79825abcba525fcdf90b791dcacef51065a7a4e7)
C         3.33337484756988    2.78192847912181    1.81150618101977
C         3.74160744054718    1.69850066051387    0.83042535862040
O         4.10323224496564    0.57373394116521    1.63456846501834
C         4.59545434447293   -0.61344612991584    0.98734710036052
C         5.86588926584688   -0.39450183575849    0.15486007039883
C         4.89794622786830   -1.55233150338409    2.17627524778320
O         5.17106778937724   -2.88698175155664    1.70500490617022
C         4.33601681064483   -3.72830067522159    2.52538481500571
O         4.32961259513291   -3.03485280970035    3.78792313798324
C         3.80551510867229   -1.81099318890470    3.22780501179353
C         2.49080019250345   -2.23746119796680    2.52887444064803
C         1.35614544638655   -2.25993794743118    3.55650243400923
O         0.05488170318150   -2.63241176349791    3.12196832423118
C         2.91080310689896   -3.62981865214067    1.97266473426577
C         2.08903032443195   -4.85114253254125    2.36995606097387
C         6.13055278974869   -1.05273686967075    2.94800742045141
O         6.34985599348201   -0.01627857685053    3.57173301346427
H         2.72645270493887    3.59516445720059    1.40132253176391
H         4.25785922277809    3.24343784857418    2.17457078034117
H         2.76217663652227    2.31265424994671    2.61816151171042
H         4.58426455449377    2.08180504107405    0.24927901102378
H         2.87892215668065    1.43306938678867    0.21059925079390
H         3.79847039016627   -1.03896400142119    0.36637498536329
H         5.73951987447409    0.06409334929713   -0.83087102448338
H         6.41471958060558   -1.28855181041935   -0.15802962853670
H         6.61626286269987    0.11147774284872    0.76872149093739
H         4.74690205285441   -4.74106219863011    2.49976783037769
H         3.74620185482190   -0.94441909913434    3.88860021756579
H         2.25005294651682   -1.58755506943722    1.68135670799463
H         1.24543273167374   -1.21043135170723    3.85228207512202
H         1.59874264161260   -2.89680854709007    4.41209176905807
H        -0.00335856530173   -2.82498454166348    2.17095326290174
H         2.95092865971853   -3.54291739185682    0.87967731830790
H         1.00995940562881   -4.67153680724155    2.34864584242609
H         2.29903029152209   -5.20839961032059    3.38508223283800
H         2.28644388229297   -5.60322345670277    1.60018089955326
H         6.90686513998824   -1.82593304046961    2.83475161055440
