37
 energy: -56.181309758645 gnorm: 0.111456111989 xtb: 6.4.1 (79825abcba525fcdf90b791dcacef51065a7a4e7)
C         2.74844340478162    2.33946623373699    1.21837871455302
C         3.25258722724859    1.07010916630728    0.55689484779671
O         3.86721366368210    0.27643709723998    1.57416461961672
C         4.78263489117150   -0.74115603031582    1.13022455085145
C         6.07519123752072   -0.20187274892148    0.50297039714512
C         5.14241412756301   -1.76382320373434    2.23080074034826
O         5.20190694724199   -3.10803352561911    1.71355649668119
C         4.13875666722279   -3.73414898997345    2.45910446062640
O         4.34209414261428   -3.19342181989815    3.77864300457095
C         4.10080102496099   -1.83208173246137    3.36058361730564
C         2.65076003790666   -1.92068110665815    2.82356826853771
C         1.67640361594847   -1.94339141806640    4.00427978633412
O         0.32656354473288   -2.06321848775862    3.57484152280999
C         2.78314840615492   -3.21568865341389    1.96924998371829
C         1.60266755073162   -4.17898712117655    1.91177018289987
C         6.52564279093583   -1.41469739162707    2.80462466074433
O         6.77944133462186   -0.55061825584919    3.64147999294254
H         2.08797014589091    2.10412152991184    2.05882253402732
H         2.09238248324551    2.87124798885385    0.52104780839297
H         3.59815506964574    2.94101360700267    1.55499327801576
H         3.98390236471100    1.43733934858770   -0.16770469494199
H         2.44440522829959    0.58274572952458    0.00175270778104
H         4.39369434271658   -1.38464222920917    0.33241128233229
H         6.38028023522890    0.62564285121116    1.15110865375050
H         5.87920784308160    0.09841479250172   -0.53136897712292
H         6.83711844827022   -0.98290875466855    0.42981719502804
H         4.25607991928126   -4.82105848756457    2.45346446771873
H         4.26218985904036   -1.15257457952351    4.19923889620278
H         2.42470513364258   -1.10289558480966    2.13165098336281
H         1.86056654401980   -1.01377401893746    4.55482724349535
H         1.97810423146804   -2.75506711248569    4.67259855374243
H         0.29100873474626   -1.68387215926171    2.68056076653336
H         3.00607723115302   -2.94719620173376    0.92905869182867
H         1.42063571850702   -4.69650419082511    2.85842053115000
H         1.80291389133695   -4.86982259223513    1.08420658707878
H         0.72874818783169   -3.55919533003433    1.68979110923407
H         7.27475438424081   -2.00610810496803    2.25472899886060
