37
 energy: -56.173001727064 gnorm: 0.122312594690 xtb: 6.4.1 (79825abcba525fcdf90b791dcacef51065a7a4e7)
C         3.72099583013199    2.95828309366016    1.85467639956321
C         3.73829597228733    1.74752277315438    0.93993631888496
O         4.62196817383627    0.77016647411743    1.49348569044297
C         4.47998457835147   -0.59500732342334    1.06137949632831
C         5.35745452731776   -0.86393380918540   -0.16853967799670
C         4.90450660543627   -1.43015216658706    2.28974073791790
O         5.28248571001827   -2.71997109770758    1.76870204265826
C         4.47313593332348   -3.70056932678540    2.44806270314362
O         4.31777472807188   -3.10596991203028    3.75083989141101
C         3.78716677638228   -1.85661872913103    3.25705888804675
C         2.53072852690670   -2.40418214846392    2.53567729006917
C         1.27275612602213   -2.31609820925789    3.40384347599610
O         0.13403334163805   -2.55567481152402    2.58729131199886
C         3.03113022922278   -3.75014773686712    1.93367586753083
C         2.32089738722944   -4.99636756799912    2.45067524537296
C         6.06631162071251   -0.80164755884664    3.07693532687669
O         5.91790739311864   -0.08935210830707    4.06788672761285
H         2.94147790612813    3.69022004033509    1.62105709281230
H         4.65271977222427    3.50587239787300    1.67715285128357
H         3.72489128663175    2.65148163393925    2.90493170644619
H         4.02054566249246    2.19323487249512   -0.01735160602664
H         2.71301561802231    1.36889881961555    0.87429975920296
H         3.46015358045174   -0.92120836052351    0.82602260478529
H         4.89665673295653   -0.39401891151253   -1.04306237302760
H         5.32349685352417   -1.92885752349096   -0.41998429840255
H         6.38485536763320   -0.54622450904316    0.02997990191651
H         5.03122023008354   -4.63821996920543    2.38081687358159
H         3.74310084819401   -1.21822278353097    4.14115605965777
H         2.31057027836771   -1.63989971349121    1.78333015059372
H         1.22855310101509   -1.26805511625935    3.72142616019355
H         1.24166912140692   -2.91758617846430    4.31693519129531
H        -0.72088291523905   -2.22465510759070    2.91047856319819
H         3.06328494182291   -3.66402594591938    0.84036324816292
H         1.24613340967492   -4.95931899136472    2.24914067341726
H         2.38513616879364   -4.84686700047657    3.53498918125302
H         2.68059627574464   -5.96228446403774    2.08356098273588
H         7.03558405139660   -0.93026739505938    2.56969974406862
