37
 energy: -56.180521116899 gnorm: 0.117931228195 xtb: 6.4.1 (79825abcba525fcdf90b791dcacef51065a7a4e7)
C         3.81486310456156    2.91405436312712    1.59604799178549
C         4.54222349315697    1.92787827621369    2.49125347138435
O         5.19846221954662    0.90023046839646    1.74572713629729
C         4.46912475660333   -0.23228864863735    1.23972129522727
C         5.03248425662382   -0.67754119881961   -0.11650596587149
C         4.73443273280817   -1.37379328592818    2.24626788667969
O         5.22873702111478   -2.60421563673163    1.68084194914386
C         4.49121080052636   -3.56604957450643    2.46127862403673
O         4.11070777090964   -2.91796459238092    3.69014691125751
C         3.47700690111915   -1.80693672869731    3.01911550933389
C         2.42342394040640   -2.48933093419862    2.11183645936657
C         1.14233664463299   -2.56368919529662    2.94685266714910
O         0.09766754793069   -3.05780491159296    2.11898788142908
C         3.13956350330551   -3.83451938842763    1.79239461134549
C         2.36883357858688   -5.06617029677872    2.25477360545772
C         5.86996620810706   -0.84243667132053    3.13660947341977
O         5.63334575304598   -0.22729685305552    4.17438934994389
H         4.49309773562362    3.33764279101975    0.84870035067192
H         3.31548154342479    3.72441069951758    2.13772946922391
H         3.05217035744184    2.34880057096743    1.05202001164446
H         3.92617733448915    1.47928841007968    3.27482133441670
H         5.45863234551960    2.40329357958646    2.85599881935712
H         3.40158138503230    0.00977374009316    1.17961985562099
H         4.96235678074243    0.20705642730412   -0.75721943054009
H         4.59563105921189   -1.59598580121988   -0.52154772847919
H         6.09912837016428   -0.90542113402022   -0.03749470727621
H         5.10140808392085   -4.43649302269782    2.71653591453691
H         3.06581021422654   -1.03083699882107    3.66696231686722
H         2.17899129968161   -1.97202231594136    1.17841909442658
H         0.94197884925025   -1.52700920063235    3.24072055511024
H         1.29443643932607   -3.21869056136537    3.80959801115519
H        -0.73205943852115   -3.04985643395318    2.62534329158181
H         3.30728872605089   -3.93796456098227    0.71306578371039
H         2.30462807448149   -5.04688607978389    3.34684144245870
H         2.97097781266971   -5.96692704464107    2.08662679392782
H         1.38777737960957   -5.08171470994942    1.77058487269059
H         6.79243933684918   -0.76084772200277    2.54019802130688
