37
 energy: -56.173829998988 gnorm: 0.122026070937 xtb: 6.4.1 (79825abcba525fcdf90b791dcacef51065a7a4e7)
C         2.15741311068219    1.58283070624146    1.72019998547175
C         3.42722971499103    1.34626467830156    0.92358743311760
O         4.29185953000440    0.48863770196215    1.67152461861910
C         4.85723516862533   -0.72470928097183    1.14359086164000
C         6.06258956281239   -0.33245941336175    0.27858395357549
C         5.20620677946263   -1.72078376270441    2.27169174838657
O         5.28200414332546   -3.01852194688594    1.64870480442248
C         4.33026240020834   -3.79208258481696    2.40629469936897
O         4.34529638097866   -3.22248567098702    3.72926382354678
C         4.07979463802403   -1.86633618655403    3.30901359814951
C         2.74125751870346   -1.97807097107134    2.53785348378681
C         1.53907340604663   -1.82008085430920    3.47260391208530
O         0.35924603063513   -1.41456730649215    2.79112750535727
C         2.95801203108464   -3.36920478632922    1.87287593028701
C         1.92236958341429   -4.44567078563101    2.17856955736361
C         6.41605437183103   -1.27788344245224    3.11109173878098
O         6.53462598726159   -0.12037102064241    3.50792805604821
H         1.60310885793417    2.44104837522613    1.32755880793667
H         2.37842103251402    1.84286359934059    2.76088079635221
H         1.53691949648701    0.68163857168419    1.72455069175390
H         3.95732229539392    2.29683058087163    0.82283698697184
H         3.19533034159387    0.99565283406016   -0.08743089847449
H         4.24183851666418   -1.31835449380664    0.45749497804442
H         5.74150552584207    0.35585313450796   -0.50949944053603
H         6.28824026173015   -1.30404786830114   -0.17256755037214
H         6.86774067126626    0.07840988532704    0.89406735585896
H         4.51923978422462   -4.86847491410072    2.37738256406811
H         4.20698591451893   -1.16821317093306    4.13820937782874
H         2.65167678192062   -1.23847856833100    1.73560546634908
H         1.79780423009009   -0.94908205731870    4.08548763011136
H         1.33923588694587   -2.70767217059358    4.07984133401483
H        -0.09984297534392   -0.65449069722152    3.18663563825283
H         3.10690202915117   -3.41577870515393    0.78685290357591
H         0.98955664984530   -4.04467315983860    1.77093329024220
H         1.83397307379357   -4.60138956455300    3.26030495414917
H         1.99084045059472   -5.43400627234374    1.71418143412534
H         7.01816827722724   -2.12270217118323    3.48130816011172
