37
 energy: -56.178612475181 gnorm: 0.120636664777 xtb: 6.4.1 (79825abcba525fcdf90b791dcacef51065a7a4e7)
C         2.88351562835009    2.53887908516633    1.56206815472054
C         3.69063278929245    1.46219166187447    0.86043053680846
O         4.23085667014158    0.58106917367145    1.84749696225040
C         4.62486226001147   -0.63752319329703    1.19147346836302
C         5.76810435981931   -0.52219896671725    0.17428422640808
C         5.08648611083050   -1.64832974658362    2.26466064457037
O         5.34111260047774   -2.96209134076924    1.72877055548500
C         4.33601380526225   -3.74348735081560    2.40504530663450
O         4.30571176570979   -3.18385568742079    3.73199977170142
C         3.95180043748020   -1.85783458919568    3.28182462283815
C         2.59921625482197   -2.12020123021469    2.57434037931135
C         1.47429950311505   -2.06403805789231    3.61134272279624
O         0.23361980473150   -2.31308517625209    2.96362875854193
C         2.96146440260912   -3.42631965088289    1.80801024113867
C         2.01935708077720   -4.60343848054845    2.03518409318327
C         6.31741513597938   -1.11141632773001    3.01367462449063
O         6.21042358295034   -0.12680222459471    3.74200227727695
H         2.37333702205973    3.34029564233696    1.01855443871570
H         3.53996822458991    3.06522567274694    2.26314405592158
H         2.20474566750062    2.04622717012089    2.26473731692067
H         4.50588317272777    1.84067567674270    0.23846510326303
H         2.99679534800541    0.89899657900354    0.22776556418548
H         3.80123693484539   -1.13445585831678    0.66558898494211
H         5.51870367337023    0.01436922112418   -0.74649719820015
H         5.88612827687343   -1.56937213932006   -0.12226044876196
H         6.72069263761388   -0.12994753339996    0.54118487643741
H         4.59958311086196   -4.80400382404106    2.43674447227023
H         4.05804574885213   -1.11078765128728    4.07033702157260
H         2.48626619786070   -1.26035748140693    1.90610799568314
H         1.52854798680649   -1.05857883751712    4.04414272914838
H         1.63017538835093   -2.79654501068171    4.40860487091442
H        -0.58429792119700   -2.00273698495438    3.38742168312938
H         3.20744716158047   -3.27985223730226    0.74884871276093
H         0.96530366193119   -4.44896405964717    1.78575389081262
H         2.04152552970893   -4.77379621033151    3.11809708696282
H         2.33127594338471   -5.52875443509146    1.54157632587732
H         7.27171033371693   -1.56817614913548    2.70706221436169
