37
 energy: -56.176860306186 gnorm: 0.120732657338 xtb: 6.4.1 (79825abcba525fcdf90b791dcacef51065a7a4e7)
C         2.98807409359910    2.46862999737421    1.97239367041129
C         3.81859189276672    1.65435000952780    0.99762315766845
O         4.03417423911424    0.41192421613848    1.67024578692288
C         4.58572272554394   -0.71639429905745    0.96791666747308
C         5.75506546617978   -0.44835240972256    0.01095938847637
C         5.02392556449280   -1.65049301607371    2.11769710638334
O         5.20412761233510   -3.02098052616953    1.70870617463600
C         4.29034958441776   -3.72340161419671    2.57459600062482
O         4.28511484120982   -2.99645527229414    3.81815363355284
C         3.93335933335056   -1.73992822656055    3.19875819943095
C         2.59224553296597   -2.12202785316314    2.52476423462452
C         1.38945478383078   -2.04189205892671    3.46860668050161
O         0.16343884024545   -2.24272804450350    2.77766979274556
C         2.86120704479985   -3.57797300543818    2.04277420517603
C         2.03619496121201   -4.75084863121215    2.56094479079431
C         6.26822736174678   -1.09294534238783    2.82856830940324
O         6.75955834317010    0.01746187290383    3.02082585313412
H         2.74850421087104    3.41211468643718    1.47199304828912
H         3.60522239693177    2.78514382959317    2.81999329657398
H         2.03720169924808    1.98306037257493    2.21164740463681
H         4.81780589520952    2.00845811745354    0.73134668159403
H         3.18458720481780    1.53996566295128    0.11228800153163
H         3.84879138474101   -1.25966410803128    0.36488652115961
H         5.36029988866709    0.25289196983159   -0.73090382335615
H         6.07333024113610   -1.28303883200367   -0.62184875084284
H         6.64337351847373   -0.07075059249465    0.52498990973539
H         4.61736439230578   -4.75801575719193    2.70802652874132
H         3.89097562126394   -0.94986439148612    3.95050401039936
H         2.38149440369915   -1.47886047038924    1.66421603715866
H         1.40840461854331   -1.03982473374446    3.91212553706149
H         1.63346948403142   -2.77984784172416    4.23826164376717
H        -0.47272425127432   -2.61922878966089    3.40889840619390
H         2.90156820877691   -3.59286434469999    0.94644733486257
H         0.94840516149461   -4.77147880354241    2.44521175417117
H         2.21924325986121   -4.67489297912139    3.63934073552239
H         2.47248468850734   -5.64821234281416    2.11201130793166
H         6.77723937144444   -1.98885412515069    3.21789372081545
