37
 energy: -56.183678190131 gnorm: 0.124671502412 xtb: 6.4.1 (79825abcba525fcdf90b791dcacef51065a7a4e7)
C         2.32165279628821    1.79437503304323    1.72858068778001
C         3.51075640826015    1.34074119443539    0.90199844457133
O         4.45751015070592    0.57299042485877    1.64814515510931
C         4.92082134850399   -0.65553335595630    1.05937808149550
C         6.20144515853606   -0.39434278876125    0.25516523789599
C         5.13888001316664   -1.61323857806024    2.25177413621198
O         5.26738228134455   -2.98053397272441    1.81362703571782
C         4.24696743480581   -3.67748977732917    2.55602653100223
O         4.18007127214520   -3.03216329732162    3.84210297134453
C         3.96405465659416   -1.73869387641358    3.23669687911823
C         2.66156077257362   -1.99152477217474    2.43767219614301
C         1.51017069046618   -1.92559247314711    3.44460799936515
O         0.19448013924254   -1.77023118757852    2.92918078498112
C         2.90952936481113   -3.41480315514408    1.85696469873912
C         1.79817984693000   -4.43250792413037    2.08926231378861
C         6.44444161442907   -1.29720760366691    3.00018419714690
O         6.64815868752300   -0.18552297798001    3.48395063304555
H         1.57512299515181    2.34632395321743    1.14892258662549
H         2.66681465684829    2.43033746171396    2.55070795271932
H         1.83480363472405    0.93732573811866    2.20357849825342
H         4.06606016877964    2.22125711136069    0.56875110148377
H         3.17021694431651    0.71710594666167    0.06894621660225
H         4.18031426868815   -1.16536634979728    0.43202264779106
H         6.10428633128520    0.30957012262748   -0.57730778685975
H         6.49502865899456   -1.38808383486085   -0.09800257713796
H         6.91149250607286    0.09165779327789    0.93010072661658
H         4.51571690642949   -4.73392468529580    2.63901943169629
H         3.83217402228459   -0.95640721180964    3.98619943802860
H         2.46533817560335   -1.19122516031159    1.71681108304801
H         1.68783091529154   -1.21056614220612    4.25601491708184
H         1.63541642753933   -2.86069412343907    3.99813223914798
H        -0.38394929746818   -2.00460940091470    3.67442711528224
H         3.04783598819485   -3.26102622500128    0.77946420339297
H         0.82621794895654   -3.93013506053959    2.09350097266330
H         1.94786549399289   -4.96715804237529    3.03475541809104
H         1.90523392695991   -5.12498098222624    1.24892183652901
H         7.15015469908499   -2.14003168653882    2.92992279254819
