37
 energy: -56.174230021814 gnorm: 0.126821664315 xtb: 6.4.1 (79825abcba525fcdf90b791dcacef51065a7a4e7)
C         2.15732905054623    1.55191916949638    1.57356267960602
C         3.52520645390215    1.42680470063188    0.92839057113894
O         4.26676844200316    0.57593403237097    1.80510246116899
C         4.91706703751081   -0.51773557296445    1.13311053562615
C         6.23245721415026   -0.01861726650946    0.52024370259430
C         5.10397363343311   -1.64115635210319    2.17692512763475
O         5.18507926693163   -2.95901617655093    1.59843590247765
C         4.18492147958618   -3.70214633495731    2.32341372075223
O         4.34701430671100   -3.23282790264114    3.67558978311025
C         4.03425830009294   -1.88703698597762    3.25455136103996
C         2.62006506529484   -2.00863917474293    2.63477346972665
C         1.54391176826904   -1.83422931772189    3.70968797296868
O         0.23690369916670   -1.72793523911213    3.16080232798520
C         2.76421141105552   -3.35573830218531    1.86732526104743
C         1.68930741740403   -4.41753977458471    2.07212265803683
C         6.39953397726624   -1.54555840170002    2.99964545266996
O         7.16683019414258   -0.58542981446327    3.02762636962346
H         1.62771533075137    0.59545987032332    1.52205746231942
H         1.50218341111034    2.27711518806428    1.07924184539660
H         2.29529904977726    1.58998429096131    2.65831788124662
H         4.04796292700608    2.38651327488217    0.94862576804528
H         3.52349797512352    0.99107402293350   -0.07609931094016
H         4.27600637994943   -0.94679040641342    0.35413143541844
H         5.99620354390350    0.56083455567516   -0.37773422307379
H         6.98341847877216   -0.80195607679161    0.37575312927169
H         6.69423654384727    0.62940380586886    1.27039719151322
H         4.41063584551311   -4.76643298061805    2.21610210938324
H         4.11165209367845   -1.18021495446456    4.08251986550861
H         2.56345751336706   -1.08804197641102    2.04492610418073
H         1.77024503989057   -0.92276725609810    4.27468103480848
H         1.67627375061890   -2.67529266524245    4.39640729563517
H         0.01759654032382   -0.79453492043341    3.00088338521465
H         2.88221344131596   -3.27575146636628    0.77945531689662
H         1.90419577944492   -5.20773422656129    2.79774109232739
H         1.45427709612390   -4.84404136135833    1.08974243657776
H         0.75059284791032   -3.93696501851755    2.36369510449652
H         6.69628232707475   -2.50389961698894    3.45444496476776
