37
 energy: -56.175087916150 gnorm: 0.132500590534 xtb: 6.4.1 (79825abcba525fcdf90b791dcacef51065a7a4e7)
C         2.92251335927155    2.55311423861708    1.44887318562839
C         3.65501596400822    1.49118450398062    0.64966455024867
O         4.16511008504092    0.54556728572902    1.59207151078539
C         4.70205688084092   -0.64400866993036    0.98612448110812
C         5.96976985474940   -0.38573660376845    0.16079090670346
C         4.98359128614191   -1.58967249479409    2.17482777663107
O         5.22933451087854   -2.96509479885515    1.82013613977994
C         4.28690235531542   -3.78477060062514    2.53993060428116
O         4.38258169558551   -3.06361121496693    3.78318784887793
C         3.89809741180938   -1.81560027510986    3.24098260605191
C         2.52482659983342   -2.20471458637241    2.63967442368870
C         1.51778088194393   -2.22604205664189    3.79265748936705
O         0.19078364925958   -2.14234730989614    3.28974844864750
C         2.89140418269866   -3.55290941351294    1.95234441124618
C         1.95232952345189   -4.72193424335503    2.22857376477618
C         6.29846328297211   -1.02115550489076    2.73374131179756
O         6.43067707397328   -0.21737471395428    3.65451775525829
H         2.54020236536338    3.43628448101662    0.92752253902134
H         3.58191654336755    3.01125703732710    2.19370254748764
H         2.03908721875309    2.13377082235014    1.93967648111629
H         4.53725029732478    1.97171963441203    0.21899889052461
H         2.98577333886630    0.97218065280282   -0.04431915051184
H         3.85856349185517   -1.01795384706107    0.39406101065459
H         5.68397094026033    0.04720220395973   -0.80296608330619
H         6.46434507689699   -1.35285297439136    0.02469785910892
H         6.62250645573662    0.34527337828270    0.64603419320496
H         4.74948283845502   -4.76933444110919    2.43120087237373
H         3.77890719607657   -0.99348673340207    3.94882582694576
H         2.08462034141091   -1.53528858900386    1.89354387548182
H         1.75113960037520   -1.44695055762693    4.52734595257852
H         1.60646499049151   -3.13193171608264    4.39927905516146
H        -0.40268301910998   -1.95489558597291    4.03645121206629
H         3.08145800480375   -3.44741503243337    0.87692176869733
H         0.92979694345865   -4.33418759903713    2.19413462715330
H         2.15240196083333   -5.28739297474166    3.14641971734478
H         1.95191022083295   -5.35210298845974    1.33412488175238
H         7.11046526067102   -1.69598864239644    2.41977780887707
