37
 energy: -56.183372471270 gnorm: 0.117867045326 xtb: 6.4.1 (79825abcba525fcdf90b791dcacef51065a7a4e7)
C         3.20237662405443    2.59712231733130    2.05493384246277
C         3.36227793637806    1.50816312936276    1.01014260718561
O         4.40122606641957    0.71140010379414    1.58309484805228
C         4.67744787885940   -0.54247279800971    0.93341888499838
C         5.96930611505703   -0.48715779815313    0.10696943325401
C         4.93282070887532   -1.54365447091295    2.08188619633746
O         5.18114744302324   -2.87003020210624    1.57489148448842
C         4.43372982189179   -3.74466495423592    2.44352938585980
O         4.35221810047303   -3.04582695581971    3.70046823007169
C         3.81627985298426   -1.84906724726947    3.09484521404896
C         2.53673728299408   -2.32453104510024    2.36302613240427
C         1.35878403380791   -2.13440220689616    3.32231911993401
O         0.06840068954043   -2.04593773799728    2.73246420607533
C         2.98140110142520   -3.76038194020510    1.95677837292908
C         2.23088687997982   -4.89016668558824    2.65326796304594
C         6.16163781445472   -1.04710232218332    2.86158404872277
O         6.15054001838217   -0.24054496255944    3.78933151578677
H         2.48046335754265    3.32313288164513    1.66801296411146
H         4.10692641680324    3.20185006532470    2.17972239962784
H         2.97810374400067    2.26467901078886    3.07295233134726
H         3.72606505122103    1.85972046553740    0.04123047873289
H         2.48175623504248    0.87291158922711    0.86871744292670
H         3.89770942941756   -0.84160467351058    0.22321940233550
H         5.83744033692793    0.15021935186234   -0.77297735371775
H         6.26111551370718   -1.52405703880960   -0.08829264904164
H         6.73741906299082   -0.11327395251649    0.78969564830735
H         4.96881530615781   -4.69706709104587    2.48574907535444
H         3.68340471552187   -1.07517413784181    3.85283772421596
H         2.29879863889993   -1.78654997598815    1.43967079870296
H         1.55045505640658   -1.09330351982033    3.60619011184534
H         1.36379652587659   -2.79940396437625    4.19078800023036
H        -0.61732292786639   -1.72366212400728    3.34142019675663
H         2.86076116332238   -3.81626913507019    0.86769343594568
H         1.14571241801325   -4.87761614237028    2.51418073370859
H         2.42345888042207   -4.86457518469201    3.73237632139032
H         2.62259987158897   -5.81813257505074    2.22596026806446
H         7.09691666665199   -1.50248968339060    2.49937435203746
