37
 energy: -56.176861773356 gnorm: 0.116937200152 xtb: 6.4.1 (79825abcba525fcdf90b791dcacef51065a7a4e7)
C         3.49930012191757    2.78293159566454    0.67553211415802
C         4.02457573489118    1.71604017859819    1.61830329242362
O         3.36686199439867    0.45960654473927    1.44136839880739
C         4.14504660658477   -0.60007433831943    0.85649258488726
C         5.22527496711961   -0.31433742277869   -0.19538061188526
C         4.81638697929248   -1.33649727718186    2.03697576311299
O         5.14894784313301   -2.61943480101953    1.47000399054157
C         4.54661957983120   -3.61995454922145    2.31517365022346
O         4.56044818331471   -2.99394300240695    3.61241390762042
C         3.91121610936450   -1.77056601099754    3.20242694969399
C         2.54286764817649   -2.33978592207540    2.75246541845019
C         1.56134598481093   -2.41842415045129    3.92481226697863
O         0.33434987594544   -2.97665071979264    3.47347246744769
C         3.02826513140949   -3.67773335429512    2.12102507261343
C         2.42527454877217   -4.88611907301119    2.82883100759598
C         6.07726732273024   -0.83696498196023    2.76163602008633
O         6.08464721990663   -0.25134375134147    3.84254610381357
H         2.46421770536486    3.09547349563453    0.84547274754970
H         3.57407798563922    2.53905442156825   -0.38955490278552
H         4.09491932666196    3.69951222845841    0.72345106287014
H         3.85948456751921    2.00232728177450    2.66018089346138
H         5.10306773157461    1.60203726779012    1.46756375231629
H         3.44766129281903   -1.33729693070472    0.44174951140965
H         5.42058453255804    0.76251444476821   -0.18164063877306
H         4.92875196639152   -0.58088378161419   -1.21492324430458
H         6.08839469059039   -0.95460482919269    0.00706369354008
H         5.05561477224604   -4.58741569676624    2.30460801243771
H         3.95054649596894   -1.05431179609987    4.02495477653896
H         2.13947150062789   -1.64963087084283    2.00441390474544
H         1.38861678223009   -1.42459957218345    4.35339635632503
H         1.80566470659659   -3.11638682296708    4.73081917472654
H         0.12920464096072   -2.59517417001070    2.60324437863963
H         2.82255983815007   -3.89831686727387    1.06612620502765
H         1.35378061918957   -4.67695908031564    2.90135168807381
H         2.83121209367600   -4.87826384278326    3.84734303910868
H         2.61719336019036   -5.83109924732758    2.31179013167111
H         7.04274257585663   -1.16642299187813    2.34614234233165
