37
 energy: -56.173462614992 gnorm: 0.131915599450 xtb: 6.4.1 (79825abcba525fcdf90b791dcacef51065a7a4e7)
C         2.79317084332975    1.92738154616100    2.18731953004938
C         4.05651987057740    1.28305149699564    1.64715539678905
O         3.59669056602481    0.13344483402659    0.93337648482433
C         4.62534153663842   -0.81974553900497    0.61107246021317
C         5.79876655736974   -0.10864696821583   -0.07623291079089
C         5.03340336850295   -1.62981216401427    1.86160626288799
O         5.10196972329079   -3.04479789277707    1.59496711015269
C         4.20396977131110   -3.69264000394914    2.51803132743537
O         4.28354060843390   -2.82792838999356    3.66731644652691
C         3.98946858435456   -1.58629908002691    2.99046995933901
C         2.57074508449599   -1.99571608807795    2.52307763978673
C         1.62919539629964   -1.76129223623948    3.70734769269841
O         0.36058551319248   -2.39955234868495    3.64334009827241
C         2.78194790732458   -3.44830687340088    2.00365067850211
C         1.90017269659366   -4.61062126150913    2.44668643785652
C         6.31887899737343   -1.19788352062282    2.58650233792599
O         6.57864323134650   -0.07905780769597    3.02482284917667
H         3.07783324525438    2.82584865875415    2.74381035165164
H         2.30346784340183    1.12455161268762    2.74868681733369
H         2.19716814049780    2.26320238913680    1.33339701551918
H         4.64721120632306    1.07604797099218    2.54323442328107
H         4.58559118283837    1.96602612881032    0.97447920351018
H         4.22212560168666   -1.49887477062784   -0.14922724166271
H         5.40680847416313    0.49503914885319   -0.90077914668428
H         6.60340697283742   -0.79826643610470   -0.35085779050581
H         6.35813972598061    0.62101142227897    0.51588362608293
H         4.55677321536877   -4.70458909607056    2.73403499661981
H         4.05801329553555   -0.70115923384718    3.62525188925628
H         2.42390043586580   -1.27758365781697    1.70984581734806
H         1.52230909420447   -0.69212746848559    3.92337782867561
H         1.96124169994470   -2.28325869451039    4.60944909928930
H        -0.16135193660259   -1.83826515574665    3.04547402684750
H         2.86134713798770   -3.49965688765620    0.91056224191684
H         1.56599314655411   -4.41376248965826    3.46975879509403
H         2.48444554187026   -5.53401620507941    2.35623879060418
H         0.94962057780696   -4.83987746762678    1.95572422743916
H         7.09494163512647   -1.97816310051599    2.63351945565132
