37
 energy: -56.176961646976 gnorm: 0.120321604362 xtb: 6.4.1 (79825abcba525fcdf90b791dcacef51065a7a4e7)
C         2.83396995459490    2.52981986840589    1.55131476979602
C         3.75940309747327    1.55961862860959    0.84048967643857
O         3.81529632067802    0.30502065329507    1.52267635512487
C         4.66452681649964   -0.71531341284453    0.96742816987488
C         5.97398045164357   -0.24594420967250    0.31935420641336
C         4.98003356459941   -1.65084476349527    2.15561745037438
O         5.25163021747571   -2.98861122314101    1.69236964626397
C         4.35906633998415   -3.75322168092113    2.52714592773674
O         4.36556531011952   -3.07442196436330    3.79761933846873
C         3.90244135151998   -1.82541100841875    3.23929086063279
C         2.54288474402445   -2.25714519023313    2.63591235129280
C         1.45120895708626   -2.31034530812540    3.70800358852524
O         0.17409986685789   -1.85420079170526    3.28166038724314
C         2.94384023845640   -3.60177448549474    1.96090292301176
C         2.01239479799936   -4.80679349341259    2.03246773430050
C         6.22146852860574   -1.04891463442474    2.83458988795074
O         6.36769654319424   -0.25384453925723    3.76079407019173
H         2.72476627128398    3.49754827793225    1.05178083825269
H         3.27636583553955    2.69301100362399    2.53981499628838
H         1.87290964138141    2.01796192234854    1.44387623918658
H         4.70501664758021    2.10324633172344    0.76972056820792
H         3.36976946827505    1.40911520021677   -0.17163601349140
H         4.11531534199773   -1.29504152397282    0.21633742520922
H         5.82750194746955    0.26905459978349   -0.63524771714378
H         6.66579066631719   -1.07662764584472    0.14671675206040
H         6.47470135531328    0.41188240363773    1.03520644833935
H         4.72026312981014   -4.77128947565345    2.69520444924619
H         3.99019557550248   -1.09529527621232    4.04573318083549
H         2.16759096331051   -1.46989649785376    1.97408337315465
H         1.64449170497049   -1.71663222018953    4.60875524361844
H         1.30339624222319   -3.36442651041295    3.96010455307678
H         0.13132764929071   -0.90108959428486    3.09550068374969
H         3.14250772871893   -3.45565461493065    0.89180816407221
H         0.99941704415135   -4.50352369575978    1.75138074494950
H         2.04106832307493   -5.20596826660691    3.05327676949540
H         2.37129973839797   -5.68589650604857    1.48885319392097
H         7.13310095030381   -1.49711315554105    2.40872083359966
