37
 energy: -56.179346493846 gnorm: 0.120395664168 xtb: 6.4.1 (79825abcba525fcdf90b791dcacef51065a7a4e7)
C         3.26540133531537    2.61200578428990    0.90900610105960
C         4.01499501441480    1.63984305632878    1.80119341836188
O         3.49934136834846    0.35331702553230    1.45266668611207
C         4.31454712956903   -0.70353228289849    0.91500165301471
C         5.28102070725501   -0.08139390949975   -0.10178189699074
C         4.89757064666732   -1.61518999520250    2.01750833493054
O         5.11467618918851   -2.95763887638788    1.53930484993016
C         4.43993651650922   -3.78221267149658    2.51036370129351
O         4.61551574272530   -3.03474290039172    3.72912325526203
C         3.97410188993577   -1.84217358508677    3.22652047424669
C         2.57882721767872   -2.29376321557617    2.72839436822344
C         1.63846823875136   -2.30564302318121    3.93651264088337
O         0.28662622369155   -2.54852745088805    3.56994164663671
C         2.96031732481838   -3.67869751011638    2.12768373113849
C         2.23177336060113   -4.89244352110590    2.69409987214609
C         6.19851842222012   -0.92378804697717    2.45794278401656
O         6.17418614043738    0.16457120061357    3.02913049585055
H         3.10420398043839    2.13851577998379   -0.06453408688174
H         3.90807016602724    3.44077089965446    0.59340616864681
H         2.28048742319815    2.92308939459752    1.27004639261061
H         3.74863905208294    1.86176423478326    2.83778872311415
H         5.10754751534312    1.59006731483876    1.74908327635396
H         3.64591673100677   -1.36956405845159    0.35715730670497
H         4.81133747851998    0.68277820930808   -0.72898456811374
H         5.82971904786658   -0.83671926120232   -0.67349316373543
H         6.09514551588146    0.41920351609747    0.42972983562432
H         4.96223196948280   -4.74084033404759    2.56875273489987
H         3.88428089301979   -0.98756805058995    3.89935075303636
H         2.18289606825665   -1.51043982673916    2.07397362061107
H         1.60591159253327   -1.32693215856902    4.42872408516609
H         1.88469513369947   -3.01429766945786    4.73254755195617
H         0.10433951356951   -2.25857667013267    2.66021314191878
H         2.91104914886338   -3.76876976582589    1.03532709632557
H         1.18136604755522   -4.89445772386789    2.38791886089383
H         2.16456166311380   -4.93178579759327    3.78778562457468
H         2.79760340541163   -5.77510177817152    2.38120629416599
H         7.15134183759251   -1.42848051628276    2.23270269136695
