37
 energy: -56.178638570931 gnorm: 0.127508586497 xtb: 6.4.1 (79825abcba525fcdf90b791dcacef51065a7a4e7)
C         3.19978804855175    2.42774169155458    0.59799353581698
C         3.24059418243975    1.53858649371134    1.82710996716680
O         4.48430180786312    0.84760513185618    1.96222097570849
C         4.69562383512198   -0.41162335660752    1.29869900600403
C         5.93854597752012   -0.27840245029449    0.40854560290914
C         4.99960646280744   -1.55315359643974    2.29421940357204
O         5.26782217072674   -2.84521103302992    1.71402071184175
C         4.33058385219981   -3.74698876864583    2.33573779066124
O         4.18589196288753   -3.25577167281311    3.68209732171193
C         3.84589124541040   -1.92273003192515    3.24204912497167
C         2.54089443555439   -2.21959895607193    2.46249382175795
C         1.46863884984326   -2.20676220499661    3.55522848919774
O         0.22447646902486   -2.27548038846344    2.87099041431142
C         2.97602271844126   -3.48693519750040    1.66942815314871
C         2.03268605993906   -4.67590559826087    1.81519580945727
C         6.21503748485023   -1.25889801440898    3.18899629020662
O         6.37815609228070   -0.30429256507254    3.94629028650450
H         4.10712916982439    3.03901396401690    0.56580380916933
H         2.26164943130173    2.99224060376368    0.57125247646056
H         3.20383087870946    1.82648272336667   -0.31614531586444
H         2.39223827983404    0.84938043416485    1.82369869554732
H         3.09649578831487    2.11007529386925    2.74987770338784
H         3.85495629802329   -0.61177278194055    0.62410751201710
H         5.99186560523049    0.63442417353242   -0.19299341265017
H         5.94331243916260   -1.19359665505704   -0.19215143492005
H         6.83086490446326   -0.31836917985928    1.03947455940736
H         4.74264888001642   -4.75752422354229    2.40046263887274
H         3.91179649213215   -1.27615394188740    4.11881303390267
H         2.16775211285539   -1.41950067284577    1.81501327014655
H         1.56886912601528   -1.34532214916753    4.22536422291487
H         1.53682028890839   -3.14285667136954    4.11698386637423
H        -0.49465025959595   -2.19267365427825    3.51976282713786
H         3.23981835375288   -3.10510449418756    0.67524480675426
H         2.22626287882992   -5.21152469185451    2.74940487330142
H         2.26451344967326   -5.33980761120078    0.97394440962671
H         1.01183936622660   -4.31009491693229    1.66957237514562
H         7.03777603067975   -1.99126435333855    3.18118592439818
