37
 energy: -56.172712493148 gnorm: 0.125123237443 xtb: 6.4.1 (79825abcba525fcdf90b791dcacef51065a7a4e7)
C         3.46497620753262    2.53702220415222    0.81913930021002
C         2.93371098276707    1.25233878517745    1.42769088981961
O         3.82218197055846    0.44209271183416    2.20011526278756
C         4.67989495134838   -0.37843692771238    1.38670629109635
C         5.89816212457376    0.45096252099228    0.95904078155646
C         5.06756046487336   -1.61824609360234    2.22285572320373
O         5.08765722244807   -2.76726711652858    1.35260909193233
C         4.27695838897758   -3.77384821794812    1.99113297158294
O         4.40940871544019   -3.47660864055413    3.39435053017241
C         4.01815072269615   -2.09464527172020    3.24158506567940
C         2.59794107490369   -2.17154796509582    2.62844174194336
C         1.44100363567591   -2.19631442978420    3.63086294234194
O         0.16122731008825   -2.00978565787346    3.04075825726676
C         2.81834335014344   -3.40471786830140    1.70370081211109
C         2.04145655196118   -4.65796687052431    2.09176880805586
C         6.29927430861569   -1.51511202797030    3.13758443678757
O         6.86260977091534   -0.50862128394603    3.56302871350192
H         4.26938804447710    3.09090365521996    1.31319881350947
H         2.66122424286573    3.26897386916559    0.68606902106417
H         3.94783908893222    2.28479890741443   -0.12975762074438
H         2.72126660566602    0.53766151783828    0.62842364407217
H         2.08791379217963    1.41882872302058    2.10279997531038
H         4.18741122777966   -0.82420587021350    0.51457953305854
H         5.59950046664242    1.14317308686759    0.16557351133726
H         6.70227221403978   -0.13787683239276    0.50614430795988
H         6.36850923524220    0.88870723243669    1.84394466034303
H         4.70422367839971   -4.75785771611336    1.78056590095116
H         3.99051818433038   -1.65538383016405    4.24028664227794
H         2.42492697772714   -1.23809718269047    2.08313515265393
H         1.58222786518505   -1.28190383275603    4.21832866199688
H         1.45156643989357   -3.16329346727454    4.14206802470561
H         0.10511226491426   -2.57207539005745    2.24981754474792
H         2.56723388053321   -3.12876461390104    0.67191730188055
H         2.33742514980992   -4.98947350966823    3.09157495326273
H         2.17300214757760   -5.42444328724709    1.31883710912074
H         0.96448150441686   -4.48037395149701    2.01602496472847
H         6.67926868608657   -2.46823604806448    3.53818263892859
