37
 energy: -56.182296796285 gnorm: 0.133312881122 xtb: 6.4.1 (79825abcba525fcdf90b791dcacef51065a7a4e7)
C         3.82015493528061    2.50308220059973    2.32462819932250
C         3.45327179575939    1.29434469815004    1.48359331199765
O         4.68878423578517    0.79121273275782    0.97086916661548
C         4.52660596341174   -0.61280272435328    0.70065923787579
C         5.49592930129193   -0.87170609948831   -0.46052870316178
C         4.77449212779977   -1.41622412533658    1.99666219885104
O         5.23167108996789   -2.75007667032654    1.69698374330704
C         4.51917546943308   -3.56711370163957    2.64722126011299
O         4.34423134472390   -2.72112862064119    3.79987808943565
C         3.69904686438722   -1.65451166687804    3.07028361008254
C         2.45527198197086   -2.33215613976661    2.44364480089707
C         1.30987924126558   -2.11731683810584    3.43656243051351
O         0.05002523869988   -2.63882572470600    3.03451724048419
C         3.07657299775805   -3.73121639729683    2.15895831889158
C         2.34675131771623   -4.92561676567513    2.76356644653679
C         5.98741967446410   -0.73057472322337    2.64718193280697
O         5.98553991945529    0.20059409491424    3.44986144468408
H         4.39486923647692    3.24151506389052    1.75684457100231
H         4.50632995622951    2.22565897183990    3.13189417420628
H         2.89665460874009    2.91628703916111    2.74126644731730
H         2.78638378311325    1.54379381258322    0.65428042947727
H         2.85618703844051    0.69467560966369    2.17839604717692
H         3.48541927370518   -0.86262465312473    0.46534131821768
H         5.13016127768891   -0.48172925197566   -1.41555559640479
H         5.59314501827015   -1.95510646180956   -0.58394991415127
H         6.48752718488261   -0.50854634506489   -0.17636266379116
H         5.10839123588343   -4.45856710225600    2.87809877052298
H         3.56778170798204   -0.81862385153767    3.75961662885678
H         2.16754574750782   -1.82328937178206    1.51796033306436
H         1.31740779802670   -1.02533227132504    3.52994348136478
H         1.46379045916915   -2.51224306736452    4.44494493449399
H        -0.25493484465235   -2.03359037523837    2.33767050600528
H         3.08442240162679   -3.77759105788526    1.06279630771758
H         1.33214729367444   -5.08944696083634    2.38827359028611
H         2.17209107258490   -4.79581288319169    3.83820987533476
H         2.87132713506058   -5.88182634111646    2.67618748799840
H         6.94876942121119   -1.11873602574850    2.27508313684683
