37
 energy: -56.183568146610 gnorm: 0.119265566230 xtb: 6.4.1 (79825abcba525fcdf90b791dcacef51065a7a4e7)
C         2.82829186422029    1.99266824619781    1.52375500756055
C         3.96223641691361    1.58175666622270    2.44479283930867
O         5.01433871317163    0.89774087033271    1.76089083347320
C         4.76655659112683   -0.35549209098266    1.09863274192884
C         5.93932669151823   -0.48142722934396    0.11693686278499
C         4.96667529499362   -1.45232996922319    2.16795794919757
O         5.28856581900517   -2.80008987516816    1.77057635997399
C         4.32611471690667   -3.60931550371419    2.47555339388538
O         4.09407308434561   -2.93272012118815    3.72586908994845
C         3.73769224849620   -1.70231051689573    3.05854026481126
C         2.58639852794779   -2.15172537892574    2.12505043028664
C         1.29941215651730   -2.10097654595207    2.95273185375860
O         0.18900622421966   -2.52851278601448    2.17487878102122
C         2.99747750026364   -3.59600192751697    1.71333413936067
C         2.01920064280776   -4.65818864423547    2.20273857422700
C         6.13915624237098   -1.02818436744507    3.06788751936389
O         5.95040692821063   -0.40481593727944    4.11055660210146
H         3.30466743002572    2.27972405946819    0.58108690620149
H         2.23765314158986    2.81757901412645    1.93624292722547
H         2.15581878904042    1.17283396364099    1.25388423959216
H         3.46498640451785    1.10084060546196    3.29107086800453
H         4.51236101338810    2.47858106240231    2.74799738306731
H         3.78295292198748   -0.43464483262849    0.62102002311117
H         5.90802228768910    0.27594654186675   -0.67258803990281
H         5.97662876812495   -1.48313677402505   -0.32309334583879
H         6.84598510758720   -0.26711837461382    0.68960076903916
H         4.77357336756624   -4.58804317686507    2.66801562675760
H         3.44478346745259   -0.95912202688287    3.80217614691619
H         2.42819321446627   -1.56370136415166    1.21520299612539
H         1.15115120209736   -1.06364841551768    3.27394212402856
H         1.47147876616961   -2.77460830300029    3.79718671461903
H        -0.57307784423708   -2.74683285748794    2.73743550838225
H         3.12137796817451   -3.75178926289258    0.63437058122490
H         2.11779341678573   -4.78945879511106    3.28447514295865
H         2.37871952859677   -5.60261900513849    1.77728444244138
H         0.99072489402212   -4.56837495478397    1.84035374827911
H         7.16492161362768   -1.25541092164735    2.73698942188989
