37
 energy: -56.180986133754 gnorm: 0.118342766047 xtb: 6.4.1 (79825abcba525fcdf90b791dcacef51065a7a4e7)
C         3.80413964099218    2.56848048018335    2.32253334742610
C         3.47519018783901    1.35810633617873    1.46826409460656
O         4.64095204295033    0.71948250696629    0.94321389443404
C         4.53654777418242   -0.68795600523757    0.66251618372799
C         5.51765817892832   -0.86617684746720   -0.50394678729675
C         4.89185643529928   -1.44128150880041    1.96359791204127
O         5.17076677555068   -2.83342115122421    1.71432166340136
C         4.41388205338368   -3.54783034394691    2.71176634157794
O         4.25368725349168   -2.62967209141980    3.81005456621182
C         3.73663697777599   -1.57419571212827    2.97048831501084
C         2.44541195835870   -2.26851101700643    2.47097012269486
C         1.43329361250263   -2.15400035352550    3.61397916155244
O         0.22335703588172   -2.68690864366399    3.09157490129800
C         3.00634652304340   -3.67839160927917    2.12165636102112
C         2.26189424535781   -4.89535342464209    2.65978058152374
C         6.06419900186521   -0.75141468672983    2.68066204130440
O         5.96673171069527    0.09988332919423    3.56223173718732
H         4.34167442915968    3.32479313400601    1.74201169326126
H         4.32113631419564    2.20210920339336    3.21582204023326
H         2.81753356929296    2.91961605615512    2.63953616753068
H         2.81800257178872    1.72529808571210    0.67580021849189
H         2.80636381622409    0.73285051125645    2.06875597781662
H         3.53061402100332   -0.89475203103368    0.27886537915096
H         4.95668072209173   -0.80111170573838   -1.44150499144686
H         5.92389348379521   -1.87986929391440   -0.42752332699369
H         6.29103072442560   -0.09738188865746   -0.42178272489678
H         4.82345670272767   -4.51111642694506    3.02719833859073
H         3.54590032489933   -0.70580904893967    3.60345209893652
H         2.12361358812329   -1.80539288985909    1.53257205626877
H         1.26485663271481   -1.09365866358547    3.83423238573183
H         1.61245272736409   -2.62532751585188    4.58467138258997
H         0.18363854807086   -2.24925767379323    2.22451670016354
H         3.12199969298668   -3.76836210066155    1.03431417032262
H         1.30500484096401   -5.02783522917055    2.14605144070722
H         2.03721428206215   -4.83002253614368    3.73097829492475
H         2.86845346518138   -5.80419858752114    2.60287705931570
H         7.03313422686871   -1.15255314390399    2.34365680836372
