37
 energy: -56.183634750387 gnorm: 0.121819953779 xtb: 6.4.1 (79825abcba525fcdf90b791dcacef51065a7a4e7)
C         2.81134929859176    2.04764633353970    2.07254877361266
C         3.99674267445825    1.41156085491473    1.37024750321904
O         3.63747064546903    0.07081932117616    1.02987336476954
C         4.66321469820903   -0.91431072148001    0.81091550799488
C         5.74725725567394   -0.26928859998673   -0.06302632463336
C         5.04285552685643   -1.61429658838797    2.13471678697072
O         5.29354278820220   -2.98780336844326    1.77608405629725
C         4.29523514973339   -3.67330387892352    2.55814657223593
O         4.29132193341002   -2.96081721809054    3.81004969277445
C         3.96594630453611   -1.67813403513322    3.23117369744408
C         2.60421793881969   -2.04627575872630    2.59162561513775
C         1.49891357751487   -2.01366570697445    3.65049518119088
O         0.30970607382981   -1.93380358391497    2.87573616396653
C         2.88798251203283   -3.45563560688646    1.99361770309922
C         1.99052816501277   -4.60929154909724    2.42771054951668
C         6.34187762305577   -1.07278738535841    2.75422760370630
O         6.59163634387500    0.12334976711001    2.88931944186637
H         2.82696777033319    3.13870223243599    2.15805291274782
H         2.71559322470698    1.69198450198617    3.10396217113096
H         1.85859676079745    1.77077832329824    1.61126228237729
H         4.88000904287519    1.34017035262273    2.01014456997002
H         4.21967503644562    2.00068166624885    0.47464608834302
H         4.05403266402687   -1.57242177144498    0.18032662019315
H         5.19106472413250    0.22720710253586   -0.86432929457199
H         6.37902315170675   -0.98447781848038   -0.59951143083636
H         6.40603768153846    0.32980730707220    0.57179187873162
H         4.63285632968822   -4.69281515695146    2.76254205515675
H         4.07841053038199   -0.92084882598994    4.00898468007950
H         2.30428260197017   -1.28538646551106    1.86381396389389
H         1.48548160738997   -1.09463748024214    4.24749911622564
H         1.51048728969119   -2.93819144357892    4.23496835120007
H        -0.43713549555501   -2.15519240877288    3.45721747257788
H         2.89909490804939   -3.51093094536143    0.89789769992807
H         0.98057313995112   -4.40089196911803    2.06210576757131
H         1.96953623834569   -4.70267102587151    3.51998037274140
H         2.46511601219974   -5.47813238097411    1.96184188164890
H         7.05631226342263   -1.82665495412098    3.12108845580069
