37
 energy: -56.175656462387 gnorm: 0.127683498898 xtb: 6.4.1 (79825abcba525fcdf90b791dcacef51065a7a4e7)
C         2.67684575184168    2.38407938118240    2.20064664413496
C         3.46616811283429    1.58791045926768    1.17786879663900
O         4.26364884803110    0.66681326160135    1.92494525666418
C         4.77869400896135   -0.38325567678374    1.08669809786909
C         6.02408555200981   -0.17771084842709    0.21392815898205
C         5.05039942552417   -1.56976092578730    2.03798073784440
O         5.13239506252670   -2.89189962347461    1.46946656022531
C         4.27540227462319   -3.65697201666972    2.34031583120306
O         4.32329130817468   -2.99399551285942    3.61823709944963
C         3.91325247021457   -1.72564390294024    3.06200405306658
C         2.58015652970562   -2.07099060387910    2.35317045066029
C         1.45043628831112   -1.99524322289033    3.38368507947027
O         0.14797280929631   -2.22141269317100    2.86092296892376
C         2.79275246841975   -3.56426741727015    1.96670144939253
C         2.00411502916031   -4.72020040366890    2.57222010334740
C         6.44235540924370   -1.44859609168390    2.68005697006202
O         6.74720128964320   -0.79406779062593    3.67506199160866
H         2.61818167898501    3.44208806579781    1.92654078975990
H         3.15659823310628    2.17713315488854    3.16318961840088
H         1.63295591705729    2.05959675479111    2.15391807712758
H         4.17709712624618    2.17460540746397    0.59042236177171
H         2.78849952892329    1.10367044462960    0.46713610364020
H         4.00292543596195   -0.74736392013572    0.40298502907487
H         5.77095514647547    0.52334763748137   -0.58756205259332
H         6.24035157806026   -1.15340454629338   -0.23293966888744
H         6.87801693580253    0.13664172304446    0.82046369858134
H         4.54366342621330   -4.71677113951728    2.33478513208319
H         3.91100904872259   -0.88420413898515    3.75705304609345
H         2.36265047400839   -1.44675341284789    1.48044909975538
H         1.36281771445437   -0.95456289574039    3.71612219847981
H         1.59597818277184   -2.67996209071839    4.22420176419503
H         0.31787847430995   -2.65155892469102    2.00593049101960
H         2.84084471192858   -3.67081008252748    0.87577561465459
H         2.14108796717367   -4.87166747170311    3.64711662356972
H         2.26882688748952   -5.64836223936149    2.05197305747010
H         0.94220817283517   -4.51002549652367    2.41305991948086
H         7.13563860385744   -2.20327276370970    2.27614907863137
