37
 energy: -56.177650619022 gnorm: 0.128472876284 xtb: 6.4.1 (79825abcba525fcdf90b791dcacef51065a7a4e7)
C         2.77140144165803    2.12956778411029    1.98865534756407
C         4.01158182454350    1.40833215929920    1.49392202589683
O         3.59256057917003    0.08729230780965    1.14493246326347
C         4.61482876659405   -0.86713285478372    0.80638414085169
C         5.68629344737640   -0.33778216377949   -0.15628268757729
C         5.06175750643148   -1.60383751727449    2.08860025505686
O         5.30992884591692   -2.99342990391475    1.79632231301240
C         4.26632594989423   -3.68835847960910    2.50774211620751
O         4.26722425810181   -2.93774456241310    3.73716959184341
C         3.94698999346840   -1.65890289038870    3.14703667496164
C         2.57473040318784   -1.98979386251345    2.50964432512440
C         1.58107579054296   -1.98101541391674    3.67435001934345
O         0.24754910605107   -2.37467710918508    3.37840910588230
C         2.89781745752756   -3.38191127793604    1.89153847731300
C         2.00184618854423   -4.53017080321453    2.34266871197340
C         6.40887823939101   -1.03126745449325    2.55967725248286
O         6.52441206405385   -0.03192947284454    3.26632345058745
H         3.05699373382535    3.15245757941918    2.25340311329604
H         2.34984896213879    1.70630933536891    2.90660085433025
H         2.02728377156537    2.13330843680097    1.18649986282348
H         4.71028853256981    1.26530606191438    2.32221956360360
H         4.51947318172185    1.84902687779061    0.62980478957398
H         4.10529224324966   -1.57378156214754    0.14089529905227
H         5.22760780161777   -0.02024200614102   -1.09794095259641
H         6.38791216364039   -1.17769420788232   -0.12946886642327
H         6.27316414819245    0.49710617976536    0.23671342242418
H         4.54988064712614   -4.72385854692559    2.71390991780649
H         3.96497201639852   -0.87142767730911    3.90246930136293
H         2.25821896197572   -1.27518101355223    1.74298109645079
H         1.53697445867732   -1.02505136860814    4.20857358107019
H         1.91364231177801   -2.62964704089027    4.48992784876516
H        -0.21751728458239   -1.68320555304136    2.87792315033896
H         2.93271238878155   -3.41246993738810    0.79534875943436
H         1.78200032596745   -5.09505751191881    1.43180253195646
H         1.10080819118926   -4.14571977042635    2.83515392575404
H         2.51988707376665   -5.13896642619068    3.08976519954914
H         7.27239828886441   -1.71376580241387    2.51667505933744
