37
 energy: -56.176732353844 gnorm: 0.117255317919 xtb: 6.4.1 (79825abcba525fcdf90b791dcacef51065a7a4e7)
C         2.81519654674937    1.87002710757619    2.50330509426329
C         3.98856751333974    1.28293159838579    1.74073791531056
O         3.55757004164790    0.26739953379189    0.83219258979022
C         4.51994386854157   -0.75986097253436    0.53361753196444
C         5.71926415140396   -0.11778147913235   -0.17655210658157
C         4.83190752870571   -1.53895285101915    1.83063399204252
O         5.06031025810552   -2.94779260830264    1.62818614008042
C         4.45552183996036   -3.67921261601142    2.71326982371292
O         4.38579592777246   -2.67680240193261    3.74536770264132
C         3.76201006252236   -1.66161930325897    2.92895033147032
C         2.49924437852000   -2.36348409753702    2.37068261692440
C         1.31981918168351   -2.04456129258609    3.29329322520940
O         0.68192373806480   -0.80738337207266    3.00463397520675
C         3.01293661988860   -3.82555363124996    2.21934221016169
C         2.31081439637282   -4.95028068414700    2.97220100357494
C         6.16010094374788   -1.05514096610609    2.43587159326418
O         6.51407226347331   -0.28698931139801    3.32807147299344
H         3.24156835682633    2.50811233217151    3.28369742850748
H         2.30505202412291    1.00735850167741    2.94493118415355
H         2.11276329757420    2.40062964611508    1.85351513073953
H         4.77550974258493    0.96337921019095    2.42872958305350
H         4.52559025573626    2.08246588281203    1.21995430994474
H         4.07630170476657   -1.47319986288833   -0.17078611685987
H         5.27593289903128    0.37185759124308   -1.04928090028892
H         6.42250043550791   -0.89093144136185   -0.50234023074051
H         6.26541241585809    0.50487171672336    0.53753947039833
H         4.93574488782660   -4.63970814091848    2.91821611757499
H         3.53571021264547   -0.74418393097427    3.47504530632292
H         2.30444495963296   -1.96211338663544    1.37089351091658
H         1.81943345482842   -1.96146974069280    4.26524403123480
H         0.60620274969411   -2.87143646158466    3.35262037621030
H        -0.10841666041099   -0.95182635720849    2.45745564009218
H         3.03499973112431   -4.10706738032819    1.15913156696799
H         2.03656993528283   -4.88417475238966    4.02933220064765
H         2.98930436425128   -5.80208917157291    2.84457883377029
H         1.40709146170861   -5.17597851699867    2.39818273423332
H         6.96392378026754   -1.51529587684146    1.83967837031870
