37
 energy: -56.180773013864 gnorm: 0.119292112501 xtb: 6.4.1 (79825abcba525fcdf90b791dcacef51065a7a4e7)
C         2.91858322387342    2.36598296407634    2.03638226982955
C         4.06047529831360    1.36699543302608    2.00328144532189
O         3.69561449651426    0.39162769025090    1.02447954875241
C         4.50829667400217   -0.76232920817939    0.74429080788541
C         5.69725633489054   -0.43164109087355   -0.16784757473865
C         4.97009518679318   -1.57364887447728    1.97516843038105
O         5.15964630306992   -2.94273070261512    1.56569592944482
C         4.41760310219511   -3.69915334445223    2.54311474669741
O         4.44934814979812   -2.93832791807181    3.76583748898588
C         3.91821923618519   -1.78498370297590    3.07740299269993
C         2.55803830256049   -2.18154986548172    2.45170551665372
C         1.36726486371032   -1.85438112819740    3.35668349514853
O         0.11710479225664   -2.21337874604094    2.78304207228336
C         2.92309636862679   -3.67545674246721    2.20797237609310
C         2.19877106575851   -4.78812256705186    2.95771270647988
C         6.27459505643583   -1.07337306975578    2.61742108342054
O         6.54308539451789    0.10437299362968    2.84589527025523
H         2.85432135254056    3.01945636132097    2.91205389692394
H         2.02957189202918    1.73542635985378    1.92897937857651
H         2.98571477265612    2.95584496267207    1.11728777102170
H         4.23105096349716    0.94070547873233    2.99520137624363
H         4.94553301167776    1.92588354235269    1.68206347722564
H         3.74444075755937   -1.25852869236575    0.13423715741694
H         5.30855270323289   -0.04368610926156   -1.11460254935657
H         6.26338578328665   -1.34875531219816   -0.35978243386080
H         6.38916107255490    0.25545288535710    0.32719930273223
H         4.87127154539301   -4.67450051521353    2.73818310205537
H         3.85291224332992   -0.94633646988859    3.77276249501151
H         2.34612854487213   -1.72501568296493    1.47944304044422
H         1.48930292875704   -0.79010148660339    3.58824894114945
H         1.44741239222526   -2.39792776155206    4.30252920542928
H        -0.51439326536493   -1.47569584958673    2.73899663673318
H         2.79428384668238   -3.71712556449205    1.11918661285224
H         1.10664797976395   -4.81792991851297    2.89867812693742
H         2.52569318769628   -4.86261063499401    4.00164144464294
H         2.46775827016928   -5.76577170244955    2.54661699458689
H         7.07432527929682   -1.81978241752832    2.74635790953478
