37
 energy: -56.173607417569 gnorm: 0.122435928967 xtb: 6.4.1 (79825abcba525fcdf90b791dcacef51065a7a4e7)
C         3.67467586208159    3.06055569618974    1.49556908108225
C         3.63734348187427    1.63765424412211    0.96931152494393
O         4.18388979683946    0.65553561362210    1.85206229855856
C         4.61809712285906   -0.53661166247841    1.17322250038082
C         5.73808770260961   -0.34462234231588    0.14184606791092
C         4.93468571074529   -1.59781102713214    2.25034124811944
O         5.26780253540030   -2.89130540863793    1.70822698810185
C         4.38290286838244   -3.82256231565795    2.36234013409493
O         4.30567723553588   -3.22808243602942    3.67212784420173
C         3.79994728959294   -1.95041507111064    3.22710404310967
C         2.46471126465357   -2.35093408318375    2.55213479983979
C         1.30582009711471   -2.13666254719681    3.52938852794184
O         0.12718015917470   -2.62658436702209    2.90358626146409
C         2.91776432037660   -3.70499256266019    1.93108768913501
C         2.11919798863572   -4.91907271392462    2.39269804243818
C         6.15176018790838   -1.04651683623145    3.01145144473652
O         6.06507392251768    0.01212078960437    3.63043867589510
H         3.23867426274078    3.84077843868968    0.86381521622875
H         4.73842780040049    3.30518941847905    1.58537061936785
H         3.20504148790032    3.09617084298893    2.48316901837680
H         4.22511875554862    1.70026003456023    0.04989590626211
H         2.60381949453032    1.31164807438857    0.81306745699678
H         3.79465459274179   -0.99151369017714    0.61031770840544
H         5.29068154671640    0.03066711020818   -0.78385913476483
H         6.09021649999451   -1.36533296068890   -0.03869529824300
H         6.58541930339555    0.25589522567977    0.48435083679957
H         4.97434263496279   -4.74112558964866    2.32222374927952
H         3.78976949208455   -1.18008319138726    4.00015269835167
H         2.19709042396799   -1.74008469990826    1.68388044140936
H         1.13464521083811   -1.07532835156064    3.74263925939626
H         1.59574983505821   -2.68901997748172    4.42790546535125
H        -0.52010939719508   -2.83002097141504    3.59967219758137
H         2.81194843010125   -3.70617145338388    0.83903229619105
H         1.12914284685664   -4.88998943852414    1.92788477975573
H         1.89199529894822   -5.01335936043090    3.46120293863931
H         2.62640782011118   -5.78938602083361    1.96556274572353
H         7.07282169449176   -1.56077580644274    2.69442861389766
