37
 energy: -56.171180032148 gnorm: 0.120966724771 xtb: 6.4.1 (79825abcba525fcdf90b791dcacef51065a7a4e7)
C         2.75327769119920    2.21735430712885    1.51911625100835
C         3.65669700375380    1.05993257985152    1.90277985191111
O         3.29497460905471    0.00507999072146    1.00893325767721
C         4.39980427760297   -0.89192864910688    0.79609178172405
C         5.48031593780579   -0.29295664712693   -0.11423960491610
C         5.03250178244025   -1.52547530705094    2.05500786590726
O         5.37894015512884   -2.87215009675420    1.67496855273232
C         4.50492715764564   -3.70530019171748    2.46244113270682
O         4.65395339930652   -3.02729267901314    3.72458651594423
C         4.09209992712384   -1.78651461712803    3.24392724309353
C         2.69804148267483   -2.18492929112572    2.69920619479393
C         1.62797326815593   -2.04759746592774    3.78551180793969
O         0.38915620608843   -2.00461130522280    3.08957470358430
C         3.02617678321889   -3.57710488981485    2.08389708499543
C         2.20203194515768   -4.64119630251290    2.80033109188531
C         6.29897330544800   -0.80972754457349    2.55324405366511
O         6.37637319797225    0.40208224374349    2.74533675152154
H         1.71634697347777    1.88282890017417    1.62316099478354
H         2.87636113133938    2.51472320728565    0.47226365158340
H         2.80957739169899    3.16614695126724    2.06115073546758
H         3.63078645778653    0.75762436592627    2.95285733726956
H         4.72001082115880    1.26778741863962    1.74458959941038
H         3.90138484262901   -1.76273718990755    0.35436130477456
H         5.30043144973120    0.76374868458842   -0.33550861434972
H         5.51963144577997   -0.87928265804824   -1.03788246721833
H         6.37604335353625   -0.23317060398719    0.51025998689377
H         4.86745938453324   -4.73537501842730    2.41062363543498
H         4.17642258988095   -1.03999475396820    4.03558171102509
H         2.36851698424786   -1.43781694707211    1.96991868309199
H         1.77296149621561   -1.05435751061584    4.22557976094630
H         1.45163501699103   -2.86162251065296    4.49456661430471
H         0.29539900113584   -1.23545493731683    2.50262162117507
H         2.96907085060404   -3.57769094591202    0.98821375906355
H         1.11471019276397   -4.56469199431965    2.70554243608383
H         2.51084824413313   -4.76498912800226    3.84509019457041
H         2.34366623028207   -5.59876033119820    2.29026983069018
H         7.09596521092840   -1.54247758660387    2.75622516993517
