37
 energy: -56.170960667147 gnorm: 0.131136010278 xtb: 6.4.1 (79825abcba525fcdf90b791dcacef51065a7a4e7)
C         2.50732161221828    2.23215131021202    1.72768564583089
C         3.47812880478160    1.51391288305214    0.80863383915465
O         3.96535937879453    0.38282939829199    1.53373750447186
C         4.69002595305580   -0.65104142730398    0.84341577992412
C         5.96156288862714    0.05924641511471    0.36003068322347
C         5.06691624498424   -1.63806815566791    1.97048681656984
O         5.07595821049964   -2.97998449277139    1.44402581696625
C         4.36338304462150   -3.79333943188857    2.39735746269713
O         4.56165911611092   -3.11633617565006    3.65325043477756
C         4.10407195708339   -1.84104776561283    3.15275437649242
C         2.70010424103467   -2.14065949134721    2.57140968331119
C         1.55149043322320   -1.71068602934138    3.48780206947464
O         0.33615968576800   -1.92907940237587    2.78344458141660
C         2.85676389593493   -3.63672423968412    2.16931645849923
C         1.98181278926643   -4.63443558043909    2.92019297796816
C         6.43445252808889   -1.47752011591163    2.65499619295660
O         6.62651158039315   -0.92399118393728    3.73577939896297
H         2.03724313353800    2.98229751919868    1.08405162004359
H         2.99715890169658    2.84007962232690    2.49577467552957
H         1.71584675297639    1.59557541565656    2.13452369458095
H         4.33215303370175    2.14374912625960    0.54657800267465
H         2.98356143686867    1.11315241615731   -0.08224114097448
H         4.13748531630444   -1.07793950635256   -0.00175408379118
H         5.60524803528140    0.82586133609578   -0.33515695766115
H         6.58902851883523   -0.68934677529564   -0.13427201798343
H         6.42630648330123    0.56234317108663    1.21256147871068
H         4.88991426908096   -4.75106375197798    2.42377338694458
H         4.13922176931588   -1.12743994356442    3.97776792725084
H         2.56525555606095   -1.58911012420557    1.63533669674628
H         1.59825575533114   -0.73606987190700    3.98694466467956
H         1.63116236389977   -2.36319247698012    4.36208942889627
H        -0.44589738370900   -1.59954960362607    3.25747274726158
H         2.60165773850409   -3.70485428855093    1.10439274441614
H         0.96133186875383   -4.25464330707940    2.81303464321971
H         1.96276716435020   -4.63288069622150    4.01648153016586
H         2.17249322807600   -5.62721607249545    2.50164849118538
H         7.25866836739792   -1.96974508272841    2.11490094728692
