37
 energy: -56.171630390841 gnorm: 0.140462711301 xtb: 6.4.1 (79825abcba525fcdf90b791dcacef51065a7a4e7)
C         2.66216905635489    2.28595454159295    1.24335604887856
C         3.31035093509019    1.05330031271266    0.64051853160783
O         4.17514712300552    0.47786869169391    1.62211152830941
C         4.86770062662509   -0.68927988567948    1.14387681549455
C         6.03959929760111   -0.15826770172586    0.30742257281106
C         5.13319272543301   -1.73437434772608    2.25015377360934
O         5.12499079227787   -3.03424847097818    1.62706277433143
C         4.15099170580742   -3.72247244997941    2.43689263458955
O         4.31790238824930   -3.16344025911474    3.75391116511219
C         4.06900640630295   -1.79655167844560    3.35905769197998
C         2.62278586404381   -1.94112925531497    2.82389633095843
C         1.62275858047462   -2.06885871512902    3.97611007704962
O         0.31218570459321   -1.97224278586557    3.43397718363904
C         2.82052267435291   -3.18177400416021    1.90404213647987
C         1.66844957693735   -4.17157622952181    2.03746653162800
C         6.51254846929938   -1.49811368128424    2.88736873212297
O         6.72744409509925   -0.63980733741173    3.74089283866579
H         2.26495096547973    1.97877835949147    2.21588802874148
H         1.87200145944173    2.46773223367824    0.50710187978443
H         3.47606121444138    3.01430602424778    1.30864153051543
H         3.77117313793930    1.20437694729142   -0.33904416917867
H         2.50939219103646    0.36194766409405    0.35880827386172
H         4.24569822790479   -1.20253007758764    0.40121773539343
H         6.36611328422424    0.72111262421335    0.87135822968796
H         5.82539771813709   -0.03413452470050   -0.75894915920382
H         6.92934322493445   -0.79407992313335    0.30690399088185
H         4.30655291093179   -4.80334377795680    2.38505922424841
H         4.17520948051151   -1.17869216477262    4.25241626372025
H         2.41863471953337   -1.03895902583530    2.23820467890969
H         1.91468253649053   -1.24371871741937    4.63575497204259
H         1.72776136773237   -3.05759124101182    4.43204108179392
H         0.23943891115421   -1.09620769505053    3.01903589039952
H         2.97691210960918   -3.02662476426580    0.82921450270790
H         1.39485685901011   -4.56776623456431    3.01995668211800
H         1.98741540916720   -5.01398452866582    1.41230830301201
H         0.77550461380104   -3.76160844803149    1.55608587071992
H         7.26214218252465   -2.21319825224633    2.51309159564861
