37
 energy: -56.174816334602 gnorm: 0.133017337474 xtb: 6.4.1 (79825abcba525fcdf90b791dcacef51065a7a4e7)
C         3.43434321591307    2.58500061660258    0.51512839627882
C         3.33832605750075    1.61183669070639    1.67561188655018
O         4.42747931029392    0.75421475142337    2.02310087192486
C         4.68334393966334   -0.46146082364181    1.29698739226115
C         5.84256262575987   -0.16743569101907    0.33535472172720
C         5.03555565890348   -1.50822007254229    2.37717217534641
O         5.24799653067582   -2.76302475995617    1.70018141962206
C         4.33078378209312   -3.72600495999771    2.25654530381854
O         4.26889894832079   -3.26338180680805    3.61928668178741
C         3.84211107109194   -1.93405534410416    3.24917032592391
C         2.50753339962012   -2.17878296682578    2.50226669235011
C         1.37742569170284   -2.43072997286492    3.50393788516611
O         0.08361978185177   -2.27996599628147    2.93456940530255
C         2.91797159484984   -3.46436110740674    1.72556835320497
C         2.08643096917307   -4.72376413004416    1.94288643982312
C         6.26022585377083   -1.27838439816461    3.27819532342524
O         6.43448304049012   -0.36677517750146    4.08440643424647
H         4.14756107627914    3.39836841669151    0.68159452197832
H         2.43127439862432    2.99526255512176    0.35696314257579
H         3.64920843400739    2.15639264915858   -0.46838909959242
H         2.39008716426983    1.08314603480348    1.54890938599237
H         3.16546323943631    2.22211470090221    2.56810460764769
H         3.85861173774565   -0.86307182823306    0.69667028246258
H         5.71078111306417    0.65011982242179   -0.38031361671536
H         5.91965558321260   -1.05950173318065   -0.29449835064143
H         6.80225403407350   -0.04384970067153    0.84488451484827
H         4.75880868224420   -4.73189670432054    2.26859941151575
H         3.67866511756705   -1.31607256275504    4.13376159526655
H         2.22349005423185   -1.26249740908275    1.97466487731580
H         1.49039883834917   -1.75926605713177    4.36276282403430
H         1.40892445826699   -3.47160842476176    3.83870728722602
H        -0.57907029596250   -2.62102549312585    3.55860957490420
H         3.02706997759948   -3.22628577717815    0.66011020467367
H         2.20906642038034   -5.09404166170680    2.96512001828843
H         2.23921830524541   -5.53230320541088    1.21822489996873
H         1.05819096186360   -4.35092617811136    1.91345889490079
H         7.10023650250889   -1.94913019063934    3.03777437411156
