37
 energy: -56.169813510378 gnorm: 0.120246846483 xtb: 6.4.1 (79825abcba525fcdf90b791dcacef51065a7a4e7)
C         3.12716530116879    2.65724870525971    0.88230192058317
C         3.50103163767512    1.42877955829787    1.69105204864810
O         3.30043484871167    0.17213070004709    1.04058040246434
C         4.42959140714395   -0.68642726979864    0.79879899782493
C         5.60264218472235   -0.15197238153905   -0.03383896861557
C         5.00878240881787   -1.49888552546268    1.97820840903268
O         5.13915145833480   -2.83457628516276    1.45197982468493
C         4.39339580537465   -3.66539730917498    2.36397532906696
O         4.50090311659997   -2.97246264166812    3.62222717358536
C         3.99093451269450   -1.72208034306525    3.10966596088586
C         2.55690679496197   -2.15037704912769    2.71094218773566
C         1.69292032259583   -2.20036396751641    3.97387314001333
O         0.38149656168885   -2.60345297083318    3.60167567661336
C         2.88111696375711   -3.56327564297162    2.14257934991568
C         2.31094403205029   -4.82123031871874    2.78851727309831
C         6.35166792664471   -1.08697393021705    2.60388530687250
O         6.48361435987654   -0.22895650991933    3.47438490448128
H         2.70764481636836    2.47230200217230   -0.11155679424974
H         3.91167232382434    3.42144812735347    0.88741385634445
H         2.33897424313373    3.26399755389443    1.33814093602047
H         2.79635713544990    1.43365685203959    2.52659641746734
H         4.46946056199043    1.54757847226619    2.18793864610443
H         3.99046379146852   -1.50685963193936    0.21921903109674
H         5.13275829153992    0.24413749685070   -0.93951587570105
H         6.20126669720685   -1.01451701812162   -0.34384781143767
H         6.02094169784815    0.67008286806889    0.55365775227642
H         4.89310528861611   -4.63661000263632    2.41093443008398
H         4.18368641896393   -0.96722306554354    3.87396708973104
H         1.99174005214703   -1.61701945718493    1.93974847010514
H         1.73283810162911   -1.21242915253696    4.44673503493077
H         2.06379524487230   -3.00650094672993    4.61347116978200
H        -0.08591142892890   -1.83143128317904    3.24054116226938
H         2.64235214155894   -3.48166126991346    1.07481821436989
H         1.29660821008942   -4.56235333470632    3.10665551705266
H         2.96478527501047   -5.05587065455630    3.63683873176306
H         2.26365244625554   -5.71238248092538    2.15545885617252
H         7.22914826516280   -1.67775873338608    2.29676705826749
