37
 energy: -56.174421979750 gnorm: 0.137595059682 xtb: 6.4.1 (79825abcba525fcdf90b791dcacef51065a7a4e7)
C         2.95860699543273    2.55361470949774    1.49749682885293
C         3.60335632402567    1.46255565972661    0.66270480815228
O         3.94286281445894    0.40954567207481    1.56737276360953
C         4.56777482148608   -0.76799630156190    1.02565837897482
C         5.81849086775432   -0.41217282481914    0.21075030196497
C         5.06540318006616   -1.60994672981251    2.22150229411529
O         5.32545902186800   -2.94985891703271    1.75783359204300
C         4.32950812185053   -3.75599587890875    2.41842109425822
O         4.32307271300553   -3.18285738277465    3.73992963186085
C         4.04624991144241   -1.81863749010044    3.35455180515870
C         2.67316262799109   -2.14479493553252    2.71650257364985
C         1.55698854914902   -2.10775117103983    3.76376044793462
O         0.25797505613490   -2.13913120964534    3.18719891623837
C         2.89965092814006   -3.47789255142107    1.94450209717705
C         1.91471581870844   -4.61435424219393    2.19577995279563
C         6.35314520447875   -1.05010427827101    2.84822482816558
O         6.40025607545413   -0.03721234254018    3.54335343419197
H         2.85298162447426    3.41357793439991    0.82871853793453
H         3.61398351097274    2.92354429807554    2.29318010912654
H         2.06164066173955    2.12276431898498    1.95246700097885
H         4.49829701061432    1.83905213690366    0.16065311297155
H         2.89066040686567    1.01982987967567   -0.04080246001100
H         3.85772305806447   -1.30471088058006    0.38564339258209
H         5.48621246792111    0.11196291204485   -0.69081353941234
H         6.30862766125735   -1.37678944441782    0.04425482373524
H         6.48376203911707    0.22817826195481    0.79663976762090
H         4.78957708208185   -4.74582501545554    2.47960633829738
H         3.93676346955569   -1.14759068816208    4.20826598135204
H         2.37495222878551   -1.43534887761071    1.93779829333174
H         1.81273141148824   -1.29748858810811    4.45605888395148
H         1.63629603832592   -3.02904148426134    4.34807641357247
H        -0.30379614789491   -2.31817486374484    3.96002641103805
H         2.85065956506268   -3.32116369475907    0.85968908088278
H         0.90830533959469   -4.34510041494071    1.86149458151623
H         1.74958214775707   -4.88126946946918    3.24635164298832
H         2.13648100217287   -5.41507440834555    1.48386770915103
H         7.20416271412945   -1.69355524991354    2.57425387959524
