37
 energy: -56.180001424544 gnorm: 0.119363410973 xtb: 6.4.1 (79825abcba525fcdf90b791dcacef51065a7a4e7)
C         5.76556054800629    3.04855284744150    1.38435495138356
C         4.51359854760020    2.19184856036447    1.42482961239977
O         4.94376945278041    0.87222593521932    1.08414211704346
C         3.98852724755470   -0.19999134855646    1.17599611212860
C         3.98452911901045   -0.85623004570355   -0.21119929113218
C         4.38826391209539   -1.15211876343655    2.32500504184552
O         5.13073813577198   -2.29321996673580    1.85108241445000
C         4.52935926857452   -3.37682196468526    2.58749337919419
O         4.12070585304416   -2.79330359682793    3.83946092119258
C         3.29477057538748   -1.80260300095566    3.18939461998227
C         2.25589476101198   -2.67583813234798    2.44303553280932
C         1.24618161159904   -3.12963724746433    3.50063271347095
O         0.03726719388800   -3.72495464417587    3.04789970592026
C         3.20741516258239   -3.80113979100952    1.94030670593445
C         2.86106441977235   -5.24811769189498    2.27359214750810
C         5.41841476310534   -0.34030069478403    3.12764144901952
O         5.12483915895701    0.60815341511654    3.85263909150765
H         6.33331679412458    2.68491419917602    0.52216143950834
H         6.42572775667160    2.88502322793278    2.24279276819452
H         5.59297675908696    4.12564895580995    1.29916496258388
H         3.80804903053940    2.45930301931996    0.63401209749550
H         3.99233358908243    2.08141871692255    2.38136093393643
H         2.97460849362051    0.21691393792028    1.17975048575002
H         4.13657352796143   -0.08319229275814   -0.97096223358324
H         3.05617210964932   -1.40955938175105   -0.38561254532280
H         4.76981012978759   -1.61468904716227   -0.27425024444681
H         5.26605343083547   -4.15120861308615    2.81722345178982
H         2.72362051895373   -1.11840093568309    3.81929484539943
H         1.75663509915644   -2.23546742526242    1.57387670646834
H         0.96193551768636   -2.20151203782850    4.00954802923357
H         1.72954236291255   -3.73732394624358    4.27106764996137
H         0.17453727921231   -4.66243149089501    2.83064421043218
H         3.36481518615569   -3.79398996323941    0.85450857496781
H         1.89407628946089   -5.55163414190143    1.86138085743532
H         2.66205129151127   -5.49995536366676    3.32201255655625
H         3.64866071581486   -5.87964936036364    1.85167807135204
H         6.44851348441734   -0.64432089146017    2.88312459608666
