37
 energy: -56.177847857945 gnorm: 0.128345252517 xtb: 6.4.1 (79825abcba525fcdf90b791dcacef51065a7a4e7)
C         3.51432831053912    2.90270608020587    1.78314933539049
C         3.32812794508346    1.52205612246774    1.18138162639036
O         4.55366907552705    0.79526169745926    1.29245634000886
C         4.53876375685452   -0.58293962135528    0.87903945205348
C         5.52762701535834   -0.89438455402946   -0.25238779860162
C         4.84906118284428   -1.48499070742357    2.09418409679410
O         5.12445287323682   -2.81051548319826    1.59908222167642
C         4.44900557800678   -3.58771293955976    2.60798555111629
O         4.45101726685955   -2.85779359508632    3.84980988316781
C         3.85385063250566   -1.68769674518703    3.24938651598397
C         2.55085335253583   -2.18419102610814    2.57518645993098
C         1.42392751201796   -2.20658344004826    3.61128616913523
O         0.22143899734316   -2.80788507504165    3.14944022235224
C         3.00966298786380   -3.58865081770519    2.08384404338296
C         2.16397696630107   -4.76818893225648    2.55105696026194
C         6.14112390704655   -0.98147587116804    2.75866207272277
O         6.12663092250525   -0.20960931015751    3.71541975807113
H         4.29798755080530    3.44455651932171    1.24441548273131
H         3.77914794114321    2.89269931772350    2.84581042242973
H         2.61568600028976    3.52254024374630    1.70948709394011
H         3.02043326033480    1.38303177957365    0.14180452720496
H         2.57611662469471    0.98319106699234    1.76701588513254
H         3.54753847199372   -0.92361421315369    0.55768529482233
H         5.33703436042492   -0.39525728686178   -1.20763172525089
H         5.54396753473214   -1.97766883809751   -0.40944886462413
H         6.53828775288115   -0.52451466694799   -0.05831863128725
H         4.97353831567825   -4.54681400252162    2.59536133140570
H         3.87552448079490   -0.90158451443907    4.00614063728565
H         2.37291811301314   -1.48144478377085    1.75475347610998
H         1.26816683282157   -1.18327314781676    3.97153836797543
H         1.81788351362603   -2.76648013973284    4.46440106303112
H         0.11573491660473   -2.56214211875335    2.21491205369385
H         2.96816900594335   -3.65563903020205    0.98950670666096
H         1.11818421131670   -4.57553870194913    2.29355008285755
H         2.16677211210784   -4.87422915676964    3.64236874332803
H         2.51875632429317   -5.71280587337077    2.12799423850999
H         7.09886082920195   -1.43793547411358    2.46251234868621
