37
 energy: -56.179671879291 gnorm: 0.122029633192 xtb: 6.4.1 (79825abcba525fcdf90b791dcacef51065a7a4e7)
C         3.07598971225693    2.58216277974712    1.30677753483284
C         3.92798919499603    1.43230151004520    1.81165891723230
O         3.39306719383457    0.28402049367642    1.14997321591720
C         4.41078073395555   -0.68666529011454    0.84566606093177
C         5.51834807594286   -0.16869940433373   -0.08168611217503
C         4.93517196936504   -1.48492025264934    2.05989834358372
O         5.15864385840181   -2.83248633901954    1.59934611441267
C         4.46052074768875   -3.60580188138308    2.59571856490094
O         4.42588443482625   -2.81692149811757    3.80045174827172
C         3.87669931316814   -1.64188538472433    3.16489790067664
C         2.54273933046364   -2.22214194993682    2.63319563831431
C         1.46676915229633   -2.30696044159898    3.71904088430471
O         0.20176425181091   -2.88196566232767    3.41908160800386
C         2.98522150871953   -3.64629181368948    2.18549298397875
C         2.33187239039751   -4.89832108684676    2.76024559325131
C         6.24257846914238   -0.90382528533196    2.62337072200335
O         6.78292468933530    0.19247897424045    2.49102185844899
H         1.99987686626845    2.39207601528164    1.36847060146005
H         3.23101473444676    2.73232792409995    0.23304766509714
H         3.32498578482631    3.53234956200884    1.78877811123314
H         3.77723871989373    1.31938312132912    2.88834274734375
H         5.01094768322249    1.49125297188980    1.66136021114380
H         3.79754696437977   -1.44006128121707    0.33753804550166
H         5.67116902355962    0.91420709480799   -0.03805322713879
H         5.19157145425740   -0.37226282051344   -1.10648805169163
H         6.47487191023905   -0.68194357811290    0.05076870148668
H         4.95537429244984   -4.55818735542121    2.80368658399669
H         3.66648637635818   -0.83312841561131    3.86692474740163
H         2.16218045634528   -1.67663773583636    1.76358445194818
H         1.31458206146672   -1.29229453868730    4.10439681414672
H         1.97665947635210   -2.92695541676081    4.46208110233987
H        -0.31742965787128   -2.18504689837451    2.98359593286275
H         2.85675074239587   -3.62251389512905    1.09612928839292
H         1.24774454995012   -4.90711476485784    2.61295034946242
H         2.43151653855891   -4.92129055240459    3.85192191956198
H         2.72993232307940   -5.85106669668637    2.39833991404762
H         6.83305671955295   -1.72169885544922    3.06579394471951
