37
 energy: -56.167045144511 gnorm: 0.149267113538 xtb: 6.4.1 (79825abcba525fcdf90b791dcacef51065a7a4e7)
C         3.48137601753064    2.27004104673939    0.21884234604369
C         3.09444222006073    1.49818064016404    1.46684195076742
O         4.18438589172340    0.81102332605218    2.08519170905096
C         4.66569686932223   -0.32535600312242    1.34522120101485
C         5.84742492336958    0.11612993427461    0.47138763780067
C         5.00312594479742   -1.45611389748990    2.34225949618890
O         5.13108248004456   -2.65861733055046    1.55766088807957
C         4.25522237372211   -3.63125996419647    2.16180178761401
O         4.31064421649446   -3.34374407804629    3.57218365219387
C         3.94136357514676   -1.96847921711900    3.33027207193126
C         2.56235414188698   -2.22099763946353    2.67192443226520
C         1.47757806895062   -2.32323305966714    3.74745903195010
O         0.17392995400000   -2.44717827091170    3.19430160003824
C         2.80135195406926   -3.43180878489555    1.72258393855172
C         1.93269451163646   -4.60073032306919    2.17406994267715
C         6.17714489794294   -0.97933981225071    3.21337956225544
O         7.12942025370780   -1.62496672457705    3.64663561724597
H         2.59506840159638    2.88224351104778    0.02487115633768
H         3.69103508485005    1.72043666812555   -0.70498461926515
H         4.29808237526851    2.92425860164775    0.53848063665811
H         2.38501272127772    0.72062793996412    1.17214562759462
H         2.85044841801296    2.17213918805481    2.29455625285355
H         3.84223787208560   -0.75178035436602    0.76047100616502
H         6.15489913507728    1.12615286928193    0.75993198064030
H         5.54310404670523    0.12351586729154   -0.58017039070073
H         6.68718567122248   -0.56974821132721    0.61377711145006
H         4.72240502014820   -4.60978832799048    2.02254868732976
H         3.85707205995622   -1.53620457761616    4.32884734154680
H         2.20260304979769   -1.33196740163983    2.14388286206980
H         1.79776856460708   -1.49375558218201    4.38828050269626
H         1.69403212904828   -3.24300766393846    4.29850620633693
H        -0.11148220444266   -1.52458085426738    3.08357780290851
H         2.58624643120182   -3.22657476468666    0.66646274100535
H         2.29404218460774   -4.93196560026814    3.15224039917883
H         2.08308659319744   -5.42254759910606    1.46399083509499
H         0.86140081640504   -4.37837263158088    2.18027495890939
H         6.03941003698228    0.08098808884037    3.47805649836609
