37
 energy: -56.177687733256 gnorm: 0.125507449223 xtb: 6.4.1 (79825abcba525fcdf90b791dcacef51065a7a4e7)
C         2.81687199747218    2.40511710404655    1.88531060191389
C         3.97991826335789    1.43238544198800    1.82123443812466
O         3.51683891162156    0.19535434011395    1.27549608095888
C         4.49887846233792   -0.78421198932366    0.89258266851144
C         5.60251419086152   -0.36056669963899   -0.08593097155491
C         5.04798676640177   -1.63861983957341    2.05663784490986
O         5.22200641776843   -2.98610149488999    1.57498161770977
C         4.41983493547033   -3.73383259490690    2.51070057667139
O         4.44953247368091   -3.01965010261502    3.76129059404940
C         4.00434779944031   -1.77539065133678    3.17830528447416
C         2.60632048576617   -2.21560534654079    2.67772079901673
C         1.54273831987173   -2.23521889712076    3.77879942841372
O         0.30327064604533   -1.86118621648780    3.19171902122528
C         2.96102256126591   -3.60135641224901    2.06265058264564
C         1.91400385041223   -4.69673501115571    2.23200363097344
C         6.41295884316016   -1.05329665737577    2.45504997471396
O         6.53130433287494    0.01556372217253    3.05078911653405
H         3.19347070458023    3.42261725270584    2.02961835898903
H         2.17369266758063    2.23487006545319    2.75526143613076
H         2.19661857090268    2.35323887351806    0.98543680275998
H         4.46497592376565    1.29188476040333    2.79061720810378
H         4.73938296828383    1.90482483657611    1.18966620188993
H         3.86127557927871   -1.51404708272131    0.38008042568578
H         5.07693630514057    0.23608959231421   -0.83807039718818
H         5.97433351020729   -1.19890158743291   -0.68374786306323
H         6.38948829980290    0.29625641482629    0.29506356719740
H         4.90779935707408   -4.69272011596042    2.70459295116222
H         3.98109366239536   -0.92054147356960    3.85639902461551
H         2.31879939338346   -1.54497046816873    1.86150759718604
H         1.84151727932913   -1.60338576069009    4.62302985089670
H         1.20730645016403   -3.17739132682026    4.22184257921521
H         0.35663998544394   -1.04922474929449    2.65995202334165
H         3.01092482148454   -3.37275319595256    0.99072068151821
H         2.14237661641902   -5.21257582824243    3.16947924131846
H         2.04294047870592   -5.46780536438859    1.46321262892527
H         0.92057084243240   -4.23977495472833    2.19418843039047
H         7.19503377299014   -1.82890898212006    2.44483407827429
