37
 energy: -56.182051581496 gnorm: 0.113764806065 xtb: 6.4.1 (79825abcba525fcdf90b791dcacef51065a7a4e7)
C         2.99878048401786    2.02953056849925    2.46923936734832
C         4.02610900383017    1.37994255791086    1.56060258804410
O         3.45705139172121    0.17090187220673    1.05373686152104
C         4.46075104562938   -0.80254324288201    0.71378655163358
C         5.54356899437664   -0.21856630301196   -0.20352057410231
C         4.96565374673975   -1.56503180682434    1.95887356079719
O         5.19483120370232   -2.90985558670376    1.49313852953086
C         4.39488978339023   -3.67682902308059    2.41509099143403
O         4.55736410355735   -2.91157480356866    3.62459587092849
C         3.95923502688023   -1.69994172105475    3.11427268766733
C         2.58994159479618   -2.11395135907801    2.52056759013695
C         1.39951523260014   -1.95754943634183    3.47050938644155
O         0.16222669572566   -1.81698436522680    2.78479624605894
C         2.88997827042044   -3.59407111896129    2.14154981782085
C         2.17126273854163   -4.68297747171714    2.93054530438437
C         6.31221760212493   -1.19537698915131    2.60277213770150
O         6.61554707407737   -0.19478832519729    3.24944582933978
H         3.36763234170971    3.02742924824750    2.72634713100304
H         2.86093076146635    1.42684412464253    3.37325522200428
H         2.00129321893082    2.19833932671109    2.05246451256308
H         4.89363062539177    1.13347555416681    2.17816601884934
H         4.34353789782995    1.99543042473378    0.71250020762805
H         3.99524387514506   -1.63012765520935    0.16582453092019
H         5.07426526058835    0.37701512090940   -0.99281224033557
H         6.16790659124090   -0.98949582786281   -0.66645714496191
H         6.17761682021503    0.48043037146284    0.34900880313810
H         4.82520435690126   -4.68179872664932    2.40925293808798
H         3.91207830268837   -0.93603052964466    3.89230543276386
H         2.26231606619007   -1.52871708632077    1.65524344044251
H         1.44173327247448   -1.01657949173500    4.03086659179402
H         1.39460996717060   -2.85620454047364    4.09411632812553
H         0.12682014975830   -0.96821903020326    2.31230324599186
H         2.64573148981264   -3.71502249518714    1.07877154208189
H         2.30208636232745   -4.63341166952393    4.01568806188902
H         2.56129078536105   -5.64627503101917    2.58104610540270
H         1.12967394288214   -4.50334180341167    2.64774601340184
H         6.94203416656724   -2.07216245306886    2.38391508777798
