37
 energy: -56.169020646299 gnorm: 0.123171791924 xtb: 6.4.1 (79825abcba525fcdf90b791dcacef51065a7a4e7)
C         3.40263740909838    2.32254516871962    0.58201452469870
C         3.54078370257562    1.74728349423521    1.97950472901439
O         4.67169439684139    0.90644717684933    2.21731578036922
C         4.61226606738938   -0.29634997104429    1.42971062060641
C         5.58880923368853   -0.25078829644513    0.24680585166067
C         4.90788125560725   -1.47239596143444    2.38683372962528
O         5.16928243468691   -2.74488400025013    1.76199295732924
C         4.35257464571151   -3.70832052691025    2.45692409735105
O         4.14842994124480   -3.22794834161528    3.79948935457106
C         3.76131235795877   -1.92684995013777    3.30600603704008
C         2.50161425292895   -2.29384524592448    2.48300585478688
C         1.21961900700012   -2.11443321498568    3.30048083912933
O        -0.01941027745999   -2.30460766630953    2.63004511653378
C         2.89232048703928   -3.71968170400279    1.99436492075928
C         2.18440037823957   -4.98186886927216    2.47448530258393
C         6.15976478674775   -1.12015207844944    3.20731901853867
O         7.07556169349238   -0.51509303754716    2.65361071497341
H         3.01590650972308    3.34513125353795    0.63411806931931
H         2.73831005943496    1.71751036655901   -0.04414856923686
H         4.38452527330321    2.47125571001372    0.12271079369312
H         2.70527600673940    1.10081676386156    2.26009695220812
H         3.72156858712195    2.59727350464536    2.64561123117244
H         3.56623568022637   -0.37099822819615    1.11017455683333
H         6.43389777910135    0.37887493843747    0.54226163233707
H         5.10822405366470    0.03722620290935   -0.69368633956759
H         6.05178844592749   -1.22072948526267    0.04489983097889
H         4.83614678383575   -4.68761726297592    2.40891687091022
H         3.65050260439324   -1.23822020871787    4.14542802095534
H         2.46640939797954   -1.72948780044546    1.54551730034951
H         1.16505123575811   -1.11434371811570    3.74550930442998
H         1.08415236549915   -2.91000540209426    4.03886037627726
H        -0.15882803248543   -1.66833854495936    1.90849806824298
H         2.78494648636554   -3.62442586120360    0.90662390472108
H         2.20501014089291   -4.97770714126111    3.56840682776354
H         2.66566667420583   -5.84109388749959    1.99248025274515
H         1.15337403537894   -5.05278627089050    2.11517064413448
H         6.37881654666463   -1.70393456373433    4.11535776851843
