37
 energy: -56.178380516876 gnorm: 0.128578496405 xtb: 6.4.1 (79825abcba525fcdf90b791dcacef51065a7a4e7)
C         3.55245856089435    2.70950798217660    1.26778169759775
C         4.37961752667360    1.81151708828004    2.16911940493944
O         5.22315345720272    0.84012291083313    1.54673745329558
C         4.60067526630846   -0.40924773527146    1.19721133924585
C         5.30117932497765   -0.77737934497856   -0.11760778366087
C         4.81578682062895   -1.39674700264733    2.36559887036119
O         5.27976892464415   -2.68306473714589    1.90943036701021
C         4.40899499664211   -3.66862266594683    2.49983632695585
O         4.11156803058195   -3.07404421900179    3.77769689864252
C         3.62008857833276   -1.83104174188716    3.23030705288163
C         2.40323078690867   -2.25916961277659    2.37309188144778
C         1.14348966431399   -2.41559901291748    3.22898207705594
O         0.03155995545986   -2.84914367873754    2.45665098739247
C         3.10098218399139   -3.48995730690709    1.72291067938772
C         2.33074124608264   -4.80572453146874    1.70652684144989
C         5.89932756206465   -0.91691263716790    3.34548801981739
O         5.64132794452523   -0.09278851575165    4.22049027865100
H         4.19933480823056    3.19436952210055    0.52993464279252
H         2.97011146065327    3.42871647139356    1.85351983335556
H         2.79001084691036    2.11621692836561    0.75411086052235
H         3.69508703548939    1.36974413931598    2.89780246718685
H         5.07299095962246    2.38662554187144    2.79149197305583
H         3.54423498294658   -0.11647087419764    1.18879196773607
H         5.07175273492243   -0.06302088540660   -0.91447665144432
H         5.03729143365758   -1.78774886746753   -0.44617535149530
H         6.38146753329673   -0.81023811576188    0.04912373625762
H         4.96115288150272   -4.61216962172926    2.50293835319763
H         3.33279608551344   -1.19359808981279    4.06830921397771
H         2.14954405901275   -1.47781713400620    1.64938278055336
H         0.79170876758661   -1.46569561065323    3.64748024617312
H         1.48891161336920   -3.07671356580877    4.02904575939161
H        -0.45334261161682   -3.51371517235944    2.97445411818569
H         3.36648465773351   -3.28303360029004    0.67865285993790
H         2.37364036710887   -5.35473525924898    2.65196498042718
H         2.76864336487713   -5.44457841257929    0.93043328757137
H         1.29615235961171   -4.61077437014040    1.40858071080695
H         6.85268614506138   -1.38305197682713    3.05029046958885
