37
 energy: -56.174055110317 gnorm: 0.127202342164 xtb: 6.4.1 (79825abcba525fcdf90b791dcacef51065a7a4e7)
C         2.91004626988723    2.30189769901208    1.35526278648577
C         3.93044690005314    1.70363371215920    2.30597412395340
O         5.05469282171434    0.98269261949677    1.79721690801292
C         4.71730335477161   -0.33692221109580    1.33314816072551
C         5.66819926107478   -0.51777647423863    0.14232280360091
C         4.88431648392396   -1.44325884566900    2.39836336802129
O         5.20742384210098   -2.68279469994336    1.73720143682201
C         4.38252634518141   -3.69269759888782    2.35184863365317
O         4.13864654633973   -3.21500743109021    3.68872886531036
C         3.69103149402136   -1.91480372671225    3.24674013197252
C         2.52187340597660   -2.26087709897796    2.29167103226333
C         1.17814431393605   -2.24518012003389    3.02523203723416
O         0.06922266051703   -2.06362372289411    2.15450013019679
C         2.97589104229638   -3.64714169849245    1.74708905017057
C         2.22402031310547   -4.91848269009019    2.12546121257475
C         6.11518127246233   -1.06749637264002    3.23994463835920
O         6.42489287533503   -0.03125121699413    3.82445139166200
H         3.48046039530885    2.94579428515136    0.67851853144836
H         2.11374908654726    2.80579496869631    1.91336358734934
H         2.47091880423723    1.49997688851037    0.75420654239072
H         3.57672134262976    1.03990230774247    3.09910917292355
H         4.38711300592046    2.52676764863699    2.86523315888550
H         3.69047359470962   -0.26896266953792    0.95518319671471
H         5.19865657166166   -0.11687407183828   -0.76142026209932
H         6.00793665274687   -1.51142771679327   -0.16699224212251
H         6.63383589187819   -0.07533192446056    0.40249672056390
H         4.87272693701335   -4.66776925888631    2.41593833532157
H         3.42508266966056   -1.34363715014739    4.13789618413136
H         2.40748496456531   -1.59929534467933    1.42688871309944
H         1.11591409462371   -1.41177120748855    3.73429057652230
H         0.87236721594925   -3.07104187179794    3.67403358001043
H        -0.08784623875940   -2.92882650915062    1.74018218796100
H         3.16005779198100   -3.60065608890695    0.66648499553224
H         2.37133310759466   -5.11664018304829    3.19135940487564
H         2.58935718545212   -5.78308379817256    1.55870935889692
H         1.14194817273045   -4.81991228410705    1.99679340684597
H         6.90619283404399   -1.82553430050166    3.12592984582834
