37
 energy: -56.178806936405 gnorm: 0.118103821768 xtb: 6.4.1 (79825abcba525fcdf90b791dcacef51065a7a4e7)
C         3.12556405294723    2.43628088338877    2.13242150423398
C         4.29586389160344    1.60586888276067    1.63865692265990
O         3.70886202111512    0.51575643945030    0.92479246528555
C         4.54726742055201   -0.61552033282664    0.62837413219047
C         5.76929837111838   -0.28293656158820   -0.23823103369851
C         4.86683098160982   -1.48889309754555    1.86192847730553
O         5.10595217511200   -2.86624522397348    1.51021185925453
C         4.34423253539403   -3.66997846737945    2.43322156772070
O         4.31298387292265   -2.84907241089168    3.61645896683395
C         3.79116174142223   -1.68191496720182    2.94438156736809
C         2.45537504473177   -2.30114338163090    2.46366929916869
C         1.52242638589878   -2.03205371445254    3.64737680135445
O         0.18045553162637   -2.48245620303433    3.51662590659267
C         2.85945233316630   -3.75116399929386    2.06543228648124
C         2.09641329857876   -4.93427171389311    2.65093249292584
C         6.12146939267809   -1.10587403503135    2.66421466669666
O         6.21725644430899   -0.15209660216345    3.43395927360813
H         3.39320897888580    3.46037572195374    1.85393662960887
H         3.03860128602691    2.45846663541399    3.22394494870191
H         2.31179989788076    1.89367288111220    1.64196969493534
H         4.86920984460755    1.27286039004351    2.50762418139821
H         5.03179289437879    2.16316611209182    1.04985104577528
H         3.89756750584126   -1.33707885648642    0.11935686468698
H         5.41160634582921    0.21965535685058   -1.14233409104076
H         6.27319722747673   -1.23868079793002   -0.41452321964834
H         6.45644097834462    0.33312908171916    0.34845446181422
H         4.88268459195540   -4.60643184787384    2.60142758103069
H         3.77670312843721   -0.88119066404547    3.68583322162650
H         2.03142160812952   -1.69447925613816    1.65691924987575
H         1.56812112133773   -0.93958149842140    3.72236645626993
H         1.91542025518343   -2.50441852210266    4.55231767266733
H        -0.19716965216483   -1.97148263448500    2.78095540584005
H         2.82211778003643   -3.76458667056397    0.96897921030893
H         2.08605299719408   -4.93680943717001    3.74500406958397
H         2.55515399543208   -5.84712790932450    2.25285675709552
H         1.05206396366447   -4.82441646494162    2.34365750415864
H         6.84503478012117   -1.93427285017137    2.72361660091244
