37
 energy: -56.181659482531 gnorm: 0.119115071759 xtb: 6.4.1 (79825abcba525fcdf90b791dcacef51065a7a4e7)
C         2.82206408958102    2.07445377852641    2.28534080442843
C         4.02804284227237    1.44028752054824    1.61718089095528
O         3.58737642061411    0.30987570815529    0.86186569814688
C         4.48373439010655   -0.81077264791680    0.75573256281593
C         5.68886354296093   -0.53829831666287   -0.15443094613541
C         4.95917633748723   -1.49303763357004    2.05766445418975
O         5.31960968199194   -2.83723696193521    1.68190069449191
C         4.42520382520172   -3.69741457626468    2.41557875873348
O         4.47422122413780   -3.02398295360314    3.68797850830517
C         3.94697938242343   -1.77888039707778    3.18006264486123
C         2.59099004664939   -2.21956753251304    2.57513124705443
C         1.44932103132043   -2.12937976213542    3.59121388375755
O         0.17162310462908   -1.68325418260520    3.15612315202861
C         2.96008241609170   -3.60911604857876    1.97733803522225
C         2.07714484275374   -4.71682948194148    2.54140817960063
C         6.24584018337757   -0.94955047402868    2.70078352058586
O         6.53201585450746    0.21613433925692    2.96659493937570
H         3.16674387314885    2.87393431507057    2.94865414512406
H         2.18101996710374    1.27557454573096    2.67306824078211
H         2.21540699834137    2.59920955370651    1.54117881231821
H         4.73349945101753    1.05386979297830    2.35727321617905
H         4.47796186589502    2.18291661621476    0.95014344062706
H         3.80398236091906   -1.52068901724784    0.27012862748160
H         5.36035511461558    0.02975475798920   -1.03041181521819
H         6.11859544212489   -1.52750013202056   -0.34218159667894
H         6.47097250721150    0.12887825443102    0.21850698317110
H         4.72846868061891   -4.74699595037058    2.45530514934628
H         3.78171691669377   -1.04631399919448    3.97199307596017
H         2.33579982146083   -1.50868437922877    1.78257423354210
H         1.77544730824851   -1.53602046811852    4.45305690665018
H         1.25557528934206   -3.15097204898679    3.93077604692186
H         0.32243416442637   -0.80651262171509    2.76435011524712
H         2.89476545617930   -3.54588288579126    0.88394028135564
H         2.22175201800235   -4.94554454091960    3.60154240642174
H         2.37263491216137   -5.62199589293681    1.99774179076320
H         1.00213655941033   -4.52142041039532    2.48375304338719
H         6.91855310362702   -1.78617212974767    2.94744440066903
