37
 energy: -56.177659255113 gnorm: 0.123065210167 xtb: 6.4.1 (79825abcba525fcdf90b791dcacef51065a7a4e7)
C         3.71962593997534    2.93388528174590    1.15696257089766
C         3.44446296390587    1.63605039447111    1.89377951361615
O         4.62152729158627    0.82806898993808    1.95862106360592
C         4.59682671225076   -0.34554773249117    1.12640217574378
C         5.59802828276116   -0.25478745221672   -0.03305206174660
C         4.84973689304649   -1.53211546504555    2.08277588410302
O         5.08742610082229   -2.80259462043468    1.44452126355156
C         4.42565333804913   -3.69992583147773    2.35830699855593
O         4.37436227008752   -3.03287722384223    3.63397519901823
C         3.72274561306323   -1.87240005651799    3.07278776130720
C         2.46534232015459   -2.37481813965047    2.32087869205522
C         1.21383166294235   -2.16966767360359    3.17855010452753
O        -0.02182127245020   -2.43324355419050    2.52698771581000
C         2.92836992878003   -3.83953169283617    2.06661384680965
C         2.34483453672459   -4.93399685909467    2.95341448625230
C         6.12786247939956   -1.26584466844865    2.89516688442082
O         6.14109377640133   -0.97638204757672    4.08990938321131
H         4.56599068086367    3.41822227070997    1.65399604650156
H         2.93151634075510    3.69166852312636    1.09272879287546
H         3.92494595763899    2.70473802653754    0.10695602518320
H         2.55872911116732    1.15247679518461    1.47383135908498
H         3.23362340289683    1.88678513273375    2.93854878729119
H         3.56806123259012   -0.42078983459310    0.75514019284581
H         6.48247167662656    0.24471827726275    0.37462240859001
H         5.19168208431749    0.31204330801006   -0.87686821085942
H         5.88662823341363   -1.22915192489089   -0.43706400479607
H         4.96409692613621   -4.62034530913489    2.59929517844559
H         3.58853978893288   -1.07785852892843    3.80886627500251
H         2.49551205428274   -1.72240866965805    1.44220059745095
H         1.24412179378536   -1.08767476129905    3.35054092866975
H         1.19727943782600   -2.70256285557746    4.13366235803591
H        -0.00978659257470   -1.93716030254775    1.69112742471510
H         2.79955558666225   -4.05015402342936    0.99758228458954
H         2.41018877895533   -4.63438542032322    4.00368502252969
H         2.99432760172656   -5.81582519326127    2.90096164762457
H         1.31516551358969   -5.20255240335709    2.69883395111609
H         7.04523345480854   -1.56642124649308    2.36469136858631
