37
 energy: -56.167186663039 gnorm: 0.134048875240 xtb: 6.4.1 (79825abcba525fcdf90b791dcacef51065a7a4e7)
C         4.14105350650775    3.13309753046088    1.16092611030800
C         3.48159204512548    1.80435354762309    1.48114362350861
O         4.32637614401692    0.71287384430827    1.85199489069985
C         4.47407746926136   -0.52124478466042    1.12693620463836
C         5.40840122074510   -0.45684013096665   -0.08873944327045
C         4.87994837545844   -1.56851606690872    2.18761939682615
O         5.23886543095802   -2.86594748714330    1.67202980053734
C         4.36869893394985   -3.76750567867915    2.38487897846075
O         4.28780911887097   -3.23988735767234    3.72278395123207
C         3.82453663423378   -1.96162085388566    3.23528400051997
C         2.47555454089033   -2.29242131522478    2.54995738471766
C         1.40652369114665   -2.42351489967970    3.63805361242114
O         0.20444244382574   -2.79141724913413    2.97435751719694
C         2.95988658227118   -3.57658895439629    1.81458882686970
C         2.17197290959926   -4.85461672856439    2.08033303115467
C         6.03712242126692   -1.04574902953165    3.05488355110722
O         5.99952543004429   -0.09022196513835    3.82749457615503
H         4.32725187231806    3.68804691359595    2.08576080657891
H         3.61787628337996    3.75021533496883    0.42273279988623
H         5.12040892511080    2.97799459298012    0.69834145980568
H         2.84718013733026    1.54348013381399    0.63014954636799
H         2.82585155794667    1.94150546595943    2.34720241013307
H         3.48728644620957   -0.82042845887281    0.75466232598454
H         5.05300922346023    0.22760128692422   -0.86538674240749
H         5.61910041521631   -1.51263640122298   -0.28708288866588
H         6.36062764168033   -0.08616939915970    0.30083694326615
H         4.75296685655841   -4.78950303772770    2.32984831716296
H         3.90761291536367   -1.29228602277936    4.09330977336132
H         2.23400700105989   -1.58573460991637    1.74941244392742
H         1.12030185161335   -1.45124937038564    4.05516725690776
H         1.68346043095325   -3.05585250189942    4.48654985045711
H        -0.53259972560138   -2.74214212431997    3.60621719690988
H         2.93372800658486   -3.40659368597591    0.73098340163357
H         2.45218281275124   -5.08260506829369    3.11310121481724
H         2.59722167901428   -5.67908665159499    1.49584472278524
H         1.09386665384466   -4.67378581513324    2.03408684892842
H         6.89214038881564   -1.74020142202596    3.05443874204003
