37
 energy: -56.175842759514 gnorm: 0.139704750902 xtb: 6.4.1 (79825abcba525fcdf90b791dcacef51065a7a4e7)
C         4.17483563070148    2.98095547133259    1.29392268020243
C         3.44044280020494    1.65317621244394    1.26825799764803
O         4.14666828719019    0.60487594294854    1.93521445393557
C         4.40844001288166   -0.56082391920279    1.13322068546899
C         5.54501649671898   -0.31428442645182    0.13202724051730
C         4.85513990023592   -1.54305305154078    2.23877138134755
O         5.21432880983409   -2.83214099309306    1.70284416783057
C         4.35251824312800   -3.74661057255365    2.40937002457354
O         4.37577216647430   -3.13296737848207    3.71237242215100
C         3.80256185857406   -1.86909722071481    3.31199133060842
C         2.50329567134874   -2.36585591088588    2.63082149740334
C         1.35380279325060   -2.52311976940824    3.62977097437016
O         0.14558914888180   -2.49717740218481    2.88117846501044
C         2.93093299666192   -3.64234243795233    1.84842812343583
C         2.08518916799751   -4.86024825909019    2.20368252738475
C         6.13844955974153   -0.89445542038482    2.78367657249690
O         6.23186539947666   -0.30978720865842    3.86108543300666
H         3.93243906027313    3.54627270129063    2.19925035650222
H         3.84920021935448    3.59511985147289    0.44761194910073
H         5.25815655619727    2.85573756631006    1.20495769397938
H         3.30394443746507    1.37860153095292    0.21911488108495
H         2.47812449902933    1.76053226723329    1.77941573051421
H         3.53446967445759   -0.97843730345106    0.61977141599048
H         4.99625730611398    0.16498878219953   -0.68473778727463
H         5.87738039718053   -1.23667231184397   -0.35497877524930
H         6.32681050818896    0.42337743538903    0.33340947251356
H         4.96284884295358   -4.65038483965077    2.33283611944004
H         3.72330867409807   -1.18079877412114    4.15524880141492
H         2.16439501295355   -1.59127058752808    1.93527321023464
H         1.33212116780568   -1.69105498875897    4.34279628518958
H         1.52209230283934   -3.41740848734525    4.23674460564718
H        -0.52702481693123   -2.68309735905323    3.55788377369308
H         3.00059597899175   -3.58293735928792    0.75508395671715
H         2.12850983698979   -5.14291297902305    3.25977454972714
H         2.39599760561330   -5.68433404533936    1.55061707929533
H         1.04769770936235   -4.65442314356788    1.92368410279741
H         6.97367751734325   -0.98573477892450    2.07136879160948
