37
 energy: -56.175281199601 gnorm: 0.119637857309 xtb: 6.4.1 (79825abcba525fcdf90b791dcacef51065a7a4e7)
C         3.70487963786956    1.82883192424241    2.63450835307478
C         3.79827994088144    1.61765750488005    1.13461802093317
O         3.47949798606612    0.24418105938604    0.90125284129549
C         4.42043056868529   -0.82964537832100    0.72204002609397
C         5.54164294986179   -0.52851236345693   -0.28154247210860
C         4.89238986795448   -1.48174119331174    2.04059327390734
O         5.22927202053026   -2.85621384912873    1.76615249018248
C         4.49782966397442   -3.61822820617378    2.74721164498461
O         4.50558296745309   -2.70532468142509    3.86142034141382
C         3.85453089202099   -1.61859136254769    3.16760137532031
C         2.53868456088904   -2.17075036369305    2.56550246271177
C         1.26409890422240   -2.15163517887771    3.41345995942462
O         0.15594104997811   -2.49771898513963    2.59305996817781
C         3.05661473341949   -3.59996341436992    2.22856125175890
C         2.32475925835366   -4.74149063589540    2.92576000996556
C         6.01002836454790   -0.75547306072061    2.80734165483708
O         6.27560884178708    0.42922487083483    2.61412897397566
H         4.63635143718261    1.56829933961145    3.14679823911438
H         2.81385844039664    1.36163722169353    3.06727676086632
H         3.59397876246277    2.89896490715086    2.83374417862093
H         4.73828414482586    1.98464016021308    0.71457021875759
H         2.96278472713692    2.16138915594707    0.68166360778449
H         3.70620495780953   -1.52809487020799    0.27048123539430
H         5.29921819329348   -0.73665690400707   -1.32837132374224
H         6.36756247360281   -1.21202387410131   -0.05993698507968
H         5.79959057328111    0.53250426074758   -0.34161286763409
H         4.99698003132224   -4.54748357203430    3.03444359751941
H         3.76959963012900   -0.80109703773070    3.88566038145113
H         2.23565943291012   -1.62262287750482    1.66752943479024
H         0.99649089444130   -1.13126751969835    3.71085328689107
H         1.39684597671632   -2.76939324811735    4.30634509006445
H        -0.02798145499531   -1.69774967421231    2.07236095014842
H         3.04061593861094   -3.72843993648197    1.13905622155449
H         1.24644576036614   -4.70172955051813    2.74474771616805
H         2.49758536294786   -4.78322639222567    4.00770410237598
H         2.72583253599599   -5.65326789293104    2.47304145356239
H         6.41683460537128   -1.38216043942276    3.61671899096228
