37
 energy: -56.176505547325 gnorm: 0.117998758501 xtb: 6.4.1 (79825abcba525fcdf90b791dcacef51065a7a4e7)
C         3.14085849381880    2.19714201769387    1.57368374943798
C         4.36090678589636    1.76098637619512    2.36377214928141
O         5.31793260896108    0.94443981013226    1.68563346317614
C         4.82258109934694   -0.31550115191947    1.19803707897073
C         5.59080642447345   -0.72172915486757   -0.06678890882408
C         4.95290732899271   -1.38967919573095    2.30063118601285
O         5.35459115080579   -2.67859779718728    1.79533789367512
C         4.40931648201549   -3.58260097092869    2.40146074822201
O         4.07996007698053   -2.93465809100465    3.64508784386063
C         3.63027618032996   -1.71505021676087    3.01533878702415
C         2.42146203022029   -2.18302489910498    2.16762290424616
C         1.19388210181907   -2.42633856683441    3.04955932270065
O        -0.00846669570659   -2.72353174549302    2.35179321357314
C         3.08116101254871   -3.49247371663000    1.64362671975226
C         2.34705150055829   -4.80618917262332    1.88861212198979
C         5.91844947069420   -0.85731225198370    3.37245115991291
O         5.51833777477826   -0.19728333269442    4.32934496567236
H         3.40062143677986    2.16680920466811    0.51087567565719
H         2.68282819071442    3.15734426010951    1.83387224470025
H         2.23546445731746    1.58439809735913    1.61823758526394
H         4.00938810413043    1.16716852056922    3.21143912741456
H         4.91224067989466    2.68398259601632    2.57107139533151
H         3.76679494469965   -0.19092039478093    0.93036104261137
H         5.47079767695115    0.00081831952242   -0.88009549427325
H         5.28716703081247   -1.70056899288819   -0.45164696315085
H         6.66690290523984   -0.87319471179772    0.05558857920771
H         4.78731602181983   -4.60442557267122    2.49179147683341
H         3.37382025890634   -0.95500722989096    3.75539555380369
H         2.07702889267314   -1.55758555449252    1.33767414820494
H         0.88531913394260   -1.54877429487849    3.62910813861728
H         1.36909920341684   -3.19022979601417    3.81261883576254
H        -0.73508042584285   -2.88655916430868    2.97658149636619
H         3.12974518247132   -3.32156236914217    0.56093919888761
H         2.50944113777714   -5.10047590153512    2.92982839031065
H         2.76734914279840   -5.59514209729506    1.25369722562917
H         1.28360918720615   -4.67697459607874    1.66602356546557
H         6.97079669269331   -1.08649325769169    3.14145022241312
