37
 energy: -56.177652683912 gnorm: 0.121848258465 xtb: 6.4.1 (79825abcba525fcdf90b791dcacef51065a7a4e7)
C         4.27246767982308    2.93601920236436    1.97533192358106
C         3.59999003694517    1.60763842886481    1.68178872626556
O         4.57429259302679    0.90381185799835    0.90856075794630
C         4.44352996761040   -0.52214290169417    0.76668490755497
C         5.39901432588278   -0.88930426581301   -0.37665158632571
C         4.72949475714680   -1.44182430146672    1.97456217046892
O         5.19160151679104   -2.77280718281749    1.66972726699980
C         4.52349934367968   -3.60523937651927    2.63866843879411
O         4.40964704089415   -2.71494391265997    3.76531195606793
C         3.66734899628095   -1.69815777391673    3.05722832356226
C         2.45816991305078   -2.48730745281624    2.49688651185101
C         1.28661438571389   -2.50286483529146    3.48237192774994
O        -0.03978717060609   -2.59284245148930    2.97897655046128
C         3.11362872125436   -3.83897314959718    2.08724695420428
C         2.33505979847513   -4.97760571275115    2.73696170190813
C         5.82632587971421   -0.66807432401073    2.72473333769524
O         5.60463077043357    0.12685628867250    3.63594677380636
H         4.68943485483873    3.32711589549446    1.04198331684958
H         5.10283552435079    2.74055242057508    2.66217989888171
H         3.61260634168128    3.69532399672475    2.40570125857257
H         2.71258879724179    1.71056447633427    1.05198748365441
H         3.35586893608505    1.25812659585346    2.69030765387926
H         3.39281434219304   -0.73858831062543    0.54084576898870
H         4.88446433985118   -0.57448330774175   -1.28992626942519
H         5.65512050490845   -1.95219768514840   -0.43239425244438
H         6.31918756647128   -0.31057290218814   -0.25726594069529
H         5.15010902534182   -4.48447190716338    2.81036375448955
H         3.40486016343074   -0.89496132510209    3.74794830617967
H         2.04703399573982   -1.96933732546728    1.62436274141397
H         1.25487002670210   -1.48100447118141    3.87734115427210
H         1.53998072917399   -3.25011578790481    4.23994184636086
H        -0.11375289460807   -3.47000236000037    2.56663516441450
H         3.23495142338718   -3.89155701687582    0.99807335840176
H         1.25842520588252   -4.90932352711576    2.55447364904648
H         2.65697054486512   -4.92763660278213    3.78390502173930
H         2.58743841258850   -5.96925336986986    2.34954514586324
H         6.83676609047969   -0.92462400929757    2.36904680661298
