37
 energy: -56.181880055917 gnorm: 0.117454079579 xtb: 6.4.1 (79825abcba525fcdf90b791dcacef51065a7a4e7)
C         3.83347809196960    3.02603411561106    1.67908615260625
C         3.71888662198389    1.73822697228492    0.88447252017100
O         4.18836117006160    0.62221689449058    1.64383670542066
C         4.51773774202542   -0.56529645868967    0.90093850899863
C         5.81283822228576   -0.42512778804589    0.08973961256955
C         4.81047336297557   -1.50990271999423    2.08777551512463
O         5.17345161425495   -2.83749353082092    1.65913600124882
C         4.35678312800233   -3.73575331385881    2.43652445110111
O         4.25610249771039   -3.09696735350687    3.72366464531114
C         3.77891667173478   -1.84782615251537    3.17760348078927
C         2.45034856370680   -2.26463518292523    2.49934746323297
C         1.30628311895528   -2.29387286217293    3.51631614613147
O         0.12645594568046   -2.85143645975463    2.95242374160434
C         2.89861943998190   -3.65995162403225    1.97344232355104
C         2.29490989974799   -4.96307759001184    2.48547789939713
C         5.98711283577942   -0.97929911912698    2.92351689923306
O         5.96764117350840   -0.16054025937099    3.84037462882748
H         3.47778855361227    3.87108172831857    1.08130914196243
H         4.83174517013275    3.19375856845749    2.09718842390486
H         3.20950907109635    2.89710881095005    2.56859132300326
H         4.20765806290357    1.86438741583691   -0.08501722122733
H         2.63726082611547    1.74198817900034    0.71436797999019
H         3.70007771206385   -0.87525794130062    0.23971903406962
H         5.69463011380770    0.11204223885383   -0.85652661279450
H         6.27715018051261   -1.38394689513576   -0.16229285349579
H         6.42573187452251    0.15102426207883    0.78853279129316
H         4.82896977874055   -4.71954164216719    2.50262364477290
H         3.71273396917855   -1.06617129117756    3.93638838898962
H         2.15941386733759   -1.63593428806096    1.65157644460718
H         1.15370430557312   -1.27029195528035    3.87716074787101
H         1.49085508519186   -2.94651801322073    4.37449920552729
H        -0.52863530893174   -2.75404461082676    3.66395457633129
H         2.78176665961965   -3.58761119733990    0.88491319170147
H         1.21956534850212   -4.98098372369685    2.28443099890208
H         2.41088572712255   -5.11399080466517    3.56528740044483
H         2.73544486357371   -5.79307916775639    1.92496210718163
H         6.93577298972859   -1.44716888104252    2.61617042208478
