37
 energy: -56.178141954626 gnorm: 0.115601147748 xtb: 6.4.1 (79825abcba525fcdf90b791dcacef51065a7a4e7)
C         3.12378257147227    2.28603973670326    2.39694960838997
C         4.29633587768819    1.53855648619620    1.78918583818439
O         3.73064006759259    0.46404930256210    1.03556699189290
C         4.58457124319858   -0.62857906542217    0.65145842332899
C         5.59771745757378   -0.26901255843151   -0.44363189003686
C         4.91706290139502   -1.52400090081841    1.86563561005433
O         5.13361243946956   -2.87710031182055    1.41818650922141
C         4.41507077573542   -3.67249953371668    2.38213091787724
O         4.45433851273158   -2.86411834949332    3.57372308159260
C         3.85964907420145   -1.69465441992811    2.96961923505554
C         2.52075957781637   -2.23406254953865    2.40813190855918
C         1.45655664287176   -1.90560238549928    3.45863271424685
O         0.13286092359181   -2.36840950951336    3.22521638355192
C         2.90399278390199   -3.71833741852282    2.13520077560876
C         2.17465676691822   -4.79793930665883    2.92723087045992
C         6.17867924580400   -1.01372896262438    2.58147851130177
O         6.12922271736038   -0.51183379223419    3.70265138762491
H         3.32270231522233    3.28058898992571    2.80836252443547
H         2.64393429382052    1.67107641781317    3.16574340868553
H         2.46183193595364    2.52698650383152    1.55972530592522
H         4.92089166216854    1.15485208103109    2.60000353525144
H         4.88944027563426    2.22587462284457    1.17707064194416
H         3.86401895363651   -1.21539972345790    0.06982178380359
H         5.05329974082806    0.31215267746222   -1.19449864250132
H         5.78921724498218   -1.21643904006354   -0.95758804820004
H         6.52755575361470    0.26748881855660   -0.23514037659043
H         4.97620967407468   -4.60483670286290    2.48719927328973
H         3.74174857695735   -0.88512802796552    3.69203567646143
H         2.22748854043511   -1.70417680377229    1.49608107602187
H         1.52310306698273   -0.81163079829083    3.46081023787502
H         1.59825488467144   -2.40870715659291    4.41951661640125
H        -0.31360606952090   -1.93804043931227    2.47664738887496
H         2.86545310264778   -3.97915356574193    1.07017823208587
H         2.19083318307766   -4.59343632836665    4.00195094936751
H         2.59025348128508   -5.80559702671002    2.80840729207976
H         1.10901455153643   -4.86019770174824    2.68705970270347
H         7.11766904510024   -1.36620435976507    2.12608931608916
