37
 energy: -56.176438976143 gnorm: 0.117960228992 xtb: 6.4.1 (79825abcba525fcdf90b791dcacef51065a7a4e7)
C         5.41553433059254    3.03612574033606    0.84870646230647
C         4.33456100908801    2.12010019238996    1.39219808232109
O         4.92586231380254    0.81928117495762    1.36478535495423
C         4.02392001179423   -0.29890532307982    1.28272656675598
C         4.21153368166451   -0.84279764785347   -0.13993234611797
C         4.53152321016201   -1.26279954346341    2.37808226615806
O         5.22481292754459   -2.43658559506404    1.90951206276093
C         4.55455678467506   -3.49568495644787    2.62170311845792
O         4.27670909654226   -2.87240551037600    3.89026031549802
C         3.45946128019890   -1.82210952280428    3.32880934471923
C         2.31920662237025   -2.53255831241139    2.55813690647252
C         1.13219654387437   -3.02434173206084    3.39067640052803
O         0.11506386886817   -3.44337601565181    2.49029017373275
C         3.17417847588445   -3.70385176922894    1.99110452263531
C         2.67133148497186   -5.09021927652905    2.37829047184364
C         5.44561889926113   -0.36922855140753    3.23274255426225
O         5.17398335563442    0.23413300767078    4.26886139721494
H         5.93217848681866    2.71895598628386   -0.06257836254176
H         6.22637770380030    3.14119027457132    1.57738514914016
H         4.91919293029593    4.01030882884376    0.80638571446737
H         3.45490948951572    2.16479170480198    0.74494217476545
H         4.00931497280834    2.44671967877358    2.38537419409517
H         3.00227025222031   -0.01212848107757    1.55812817806606
H         3.92695046718256   -0.15101309096965   -0.93892613553483
H         3.73969604671607   -1.81271779936494   -0.32718666045671
H         5.27129482185675   -1.09271060938053   -0.24167491262732
H         5.15323282413075   -4.40745570439989    2.54801518111877
H         3.24506497200594   -1.20513304074172    4.20316238280933
H         1.95409402097259   -1.84002176080374    1.79282036115748
H         0.76413501462714   -2.20623266519176    4.02030744614105
H         1.51031446593548   -3.85512102115892    3.99343943493191
H         0.39060850141671   -4.27014490282733    2.05966944213107
H         3.18762995056616   -3.64851182704902    0.89541299451703
H         1.62876332325697   -5.27915845857754    2.10541687057727
H         2.67171122997291   -5.25244578704717    3.46267793226087
H         3.35257573013263   -5.84244478638653    1.96937154733591
H         6.48365632265736   -0.43400812765852    2.86997270640409
