37
 energy: -56.181804990874 gnorm: 0.125045307273 xtb: 6.4.1 (79825abcba525fcdf90b791dcacef51065a7a4e7)
C         4.14030582237910    3.03201546882596    1.28468376471128
C         3.41648360334172    1.73684538922246    0.96592817975436
O         3.85736817281426    0.65003629036925    1.78262003198738
C         4.34796969936712   -0.54575924835554    1.15019788365481
C         5.55189917989860   -0.13700794356985    0.29086538817261
C         4.85731507436253   -1.56697628252007    2.19146647279873
O         5.20819416089771   -2.87150073168114    1.68839368580365
C         4.35764312680626   -3.78747486302023    2.40651984979621
O         4.39004359412944   -3.16970033526329    3.70737295989897
C         3.86065931634819   -1.88296594955205    3.31967491588116
C         2.52352806364401   -2.34144852490051    2.68664415041049
C         1.38184612656913   -2.49291683213175    3.69539862435377
O         0.17854769152160   -2.36839478643675    2.94879892861245
C         2.92251643670601   -3.62268966597517    1.89692244596310
C         2.15565965397752   -4.90597285390650    2.19675215506717
C         6.19363233435808   -1.08785955171856    2.78238747474163
O         6.24215284137005   -0.57941618926830    3.90064702657146
H         4.00762495332178    3.28562990427580    2.34110857223223
H         3.64173136110809    3.81322742322477    0.70106612511082
H         5.18585855618561    2.89146335897555    0.99443713644643
H         3.47634758763414    1.51334824341475   -0.10233661164686
H         2.34685196562880    1.85978469506631    1.16502149646384
H         3.54384345369857   -1.01473429108001    0.57114811457311
H         5.12299757305536    0.37410031956878   -0.57674992188349
H         6.00453381192004   -0.99539503112576   -0.21582340999067
H         6.29136471983905    0.53933998572330    0.72863919206772
H         4.87089448664081   -4.75253070571360    2.42674540904138
H         3.91469735444087   -1.16176813535135    4.13703200741230
H         2.16008903236244   -1.50147196787743    2.08583222199144
H         1.42472614447743   -1.65156860808246    4.39647027795328
H         1.42960511943715   -3.41331900999341    4.28452473571969
H        -0.54829556609957   -2.63974129131333    3.53444029126420
H         2.96623552377598   -3.53447815279907    0.80417785436316
H         2.31209328388651   -5.23023104250434    3.22994697437254
H         2.52552601361811   -5.67461098577619    1.50783412682712
H         1.08813710722781   -4.78626571592347    1.98886411044572
H         7.11095515309015   -1.23939610239660    2.19173057215826
