37
 energy: -56.181589900759 gnorm: 0.121528622197 xtb: 6.4.1 (79825abcba525fcdf90b791dcacef51065a7a4e7)
C         3.81666425538095    2.82019335494594    1.10836100823733
C         3.16386337599777    1.45044362995303    1.08334175992348
O         3.78302261873291    0.38937683012123    1.81361423077666
C         4.53789454981811   -0.60579027798446    1.09920160520964
C         5.77841245427503   -0.10644005112892    0.34637970616602
C         4.93482924758965   -1.58212816716162    2.22869900786996
O         5.26846390240776   -2.90286559940974    1.75718765908003
C         4.35850018148102   -3.74950765247670    2.48747124574211
O         4.35451665025836   -3.12092652843732    3.78353600837850
C         3.88575052153692   -1.83394641179904    3.32507843160608
C         2.56520765630056   -2.25046890593609    2.63115497785406
C         1.42975608560980   -2.25377124045940    3.65814315100027
O         0.23207715947805   -2.32254604508926    2.89546419653755
C         2.94433498830105   -3.58407029981055    1.92249374918515
C         2.06295656846231   -4.81642687769234    2.09352665993091
C         6.23005892109018   -1.05193866952461    2.86569467274320
O         6.26895343089807   -0.29014609882244    3.82981738723491
H         3.30881021151824    3.58199785464377    0.50861436039781
H         4.80343109961138    2.75491419267900    0.63771465954037
H         3.98031451121606    3.19204084185599    2.12429730494238
H         3.15253599608823    1.05176156147888    0.06567352498422
H         2.23560441069187    1.46973677359228    1.66370986103365
H         3.85528818530501   -1.15905880296456    0.44361199425246
H         5.54498101614952    0.20105260960785   -0.67777974704390
H         6.46700821434055   -0.94245673025657    0.18715650562247
H         6.32526211670840    0.60856343414624    0.96736857046351
H         4.70515011978486   -4.78607205722419    2.51064155351357
H         3.78937826800215   -1.04515217233708    4.07316602080517
H         2.33596030515786   -1.54878595843711    1.82263150506143
H         1.50641296022622   -1.33896528649583    4.25685909553352
H         1.51673620678249   -3.15957384724900    4.26514131048233
H        -0.46062319344993   -2.42073695196494    3.57032019601446
H         3.09252032562365   -3.40217280210411    0.85070189394290
H         1.00311628184054   -4.59430078535356    1.93698608384030
H         2.25120102652470   -5.20960709511042    3.09960175101426
H         2.20366944587170   -5.55113718528600    1.29505795479819
H         7.13984769043182   -1.50330509918191    2.43922920364740
