37
 energy: -56.177142958464 gnorm: 0.128220207094 xtb: 6.4.1 (79825abcba525fcdf90b791dcacef51065a7a4e7)
C         3.01821544831112    2.03367054384530    1.49377613622299
C         4.46749888394873    1.97518078182149    1.04751865381166
O         5.14627240601414    0.83381584560808    1.57579074531740
C         4.57871160325717   -0.40900552217422    1.12429943658331
C         5.14778756557039   -0.76820756646684   -0.25486791646909
C         4.79534970986684   -1.42635993968548    2.26649693938297
O         5.22120238425784   -2.68906566377504    1.71676411865828
C         4.37845188793964   -3.62269198795262    2.42122444002430
O         4.42848168556967   -3.11047187929004    3.76660228533427
C         3.83286845056742   -1.84992271803760    3.38910587886036
C         2.45901997335424   -2.24230230305963    2.79124902868083
C         1.29296482691066   -2.34876628826856    3.77762962643189
O         0.12538060889023   -2.39779823591874    2.96819344715370
C         2.91157169876078   -3.50255713205037    1.99665123808441
C         2.05879737778751   -4.75442154926107    2.17099098612981
C         6.08379464343392   -0.90007623677314    2.92027016581850
O         6.24846560103303   -0.59775769888830    4.10046519285682
H         2.42785544633110    1.56374890949939    0.70092899069067
H         2.66609820342523    3.06815607412746    1.56679185345047
H         2.90439828430419    1.52670100724801    2.45669153420037
H         4.95009241741175    2.83925589668762    1.51141736934545
H         4.51374209447792    2.18255719831369   -0.02659523767055
H         3.50376409865067   -0.32070121004886    0.92796945109528
H         4.92723420487382    0.07159137450415   -0.92123007003073
H         4.71755620090295   -1.67806410004101   -0.68556746296382
H         6.24090903665529   -0.79483777407996   -0.27154097694225
H         4.79033233653658   -4.63428265989116    2.37423916023599
H         3.77274480049987   -1.24487937862145    4.29543181550659
H         2.12253518729608   -1.49933588523514    2.06090499901734
H         1.26882641407081   -1.42573537344029    4.36808560139091
H         1.36421572591311   -3.20053216537977    4.46020479558133
H         0.03967081917887   -1.55934408349203    2.48388536556393
H         2.92585026598291   -3.23704078313497    0.93218866716351
H         2.26406004728594   -5.08712049793427    3.19289364083622
H         2.43207794967241   -5.45312234348305    1.41290618573184
H         1.03210047561753   -4.44827325738365    1.94891370394459
H         6.89307724687990   -0.85777481128782    2.17421901115691
