37
 energy: -56.179724034777 gnorm: 0.116483435301 xtb: 6.4.1 (79825abcba525fcdf90b791dcacef51065a7a4e7)
C         2.47941059643089    1.86385965988812    2.39008476198665
C         3.77973048103503    1.50545184862770    1.69459838661063
O         3.53059202477746    0.26011938616575    1.03916275161016
C         4.52145878758749   -0.74124001410061    0.74584215547103
C         5.77570997188888   -0.22581425432990    0.02739495074916
C         4.98178724542736   -1.61878391316576    1.93098839223056
O         5.11335540182367   -2.94134641169776    1.37286594472039
C         4.38320141177700   -3.78709571140581    2.28376337714802
O         4.56712242538192   -3.17949825140454    3.57678787933655
C         4.05076473321807   -1.91017572498033    3.12023787316834
C         2.64614963697487   -2.24826251865441    2.56201931568401
C         1.49646980740290   -1.73263011651817    3.43168902152786
O         0.54705570808007   -1.19031680200441    2.52319955527917
C         2.85647619452556   -3.73997678946751    2.16834148922709
C         2.23216808191782   -4.78885224764367    3.08206057964132
C         6.34643112277697   -1.14186960950084    2.45518693061746
O         6.45460940797422   -0.22028604960516    3.26163253419880
H         2.52812860505469    2.81067626607014    2.93700590586044
H         2.13694302100206    1.06614595188402    3.05780248581657
H         1.66528679789927    2.02544968900449    1.67715445532590
H         4.51854968986961    1.33954324305665    2.48285268694270
H         4.03474183874570    2.25635134075801    0.93962605820290
H         4.05148951043912   -1.43154793274013    0.03558930880687
H         5.46606388607526    0.43377908447742   -0.78930603041329
H         6.35834463301158   -0.97990488613382   -0.51142245919241
H         6.31725234660704    0.41928276359090    0.72487857470121
H         4.84069391258363   -4.77999018862044    2.28923920731358
H         3.96947028907600   -1.23749581135661    3.97581484206613
H         2.52859979113484   -1.65707419693951    1.64807078206945
H         1.84919156935917   -0.95794536072068    4.12209316440857
H         0.97894102012162   -2.48338328968568    4.03586142546190
H         0.89818692327690   -0.34064970518952    2.20748045997576
H         2.51485061013455   -4.01147359130115    1.16168125660749
H         2.68733705820388   -4.68000850174118    4.07104017136181
H         2.41067139650169   -5.82401275392866    2.76774697408945
H         1.14284718696548   -4.80669977084799    3.18312035494651
H         7.11209330261751   -1.85797037226904    2.11713193413281
