37
 energy: -56.173019735238 gnorm: 0.133373233731 xtb: 6.4.1 (79825abcba525fcdf90b791dcacef51065a7a4e7)
C         3.40415295560200    2.77053114893131    1.54374216397387
C         3.34263409792236    1.25504541208577    1.49366543454642
O         4.65613093530508    0.79590007884840    1.16742866494377
C         4.69710090112478   -0.61229399852041    0.87436638976994
C         5.77555826959656   -0.72649725346656   -0.21138839783960
C         4.90519190757761   -1.49507217594819    2.12494945713784
O         5.09143871306120   -2.81799180272496    1.58349014556367
C         4.28477723105794   -3.62656862876705    2.46306483568411
O         4.39436084633979   -2.97415382169442    3.74261957327920
C         3.82701620917485   -1.76732824678382    3.18770070446884
C         2.46227521422035   -2.16453122171067    2.57242352167785
C         1.45054983735908   -2.26427074601590    3.71716352760362
O         0.10248744255000   -2.30127576364516    3.26749434007292
C         2.85691207196550   -3.52138561671171    1.91848249664646
C         2.19105126225033   -4.79390516010266    2.43044570029117
C         6.15643788999959   -0.91701403911580    2.80665067377170
O         6.11067188781622   -0.05312696085809    3.68013673409395
H         3.58201990022647    3.22424613701368    0.56370954775574
H         4.28944725450540    3.00886515011436    2.14284905725121
H         2.62743375011723    3.34023219325214    2.06270894135855
H         2.57679696693196    0.80559050915636    0.85632085253782
H         3.05845621475881    0.78382144141277    2.44026723280173
H         3.74004386392449   -0.86602567742846    0.40371014225273
H         5.44272581658403   -0.57815315700005   -1.24345484178311
H         6.33625055570557   -1.66316237380607   -0.12939664141183
H         6.46154658601625    0.07588355507746    0.07410553303762
H         4.75491399798820   -4.60237481533330    2.61119492882251
H         3.78887589256176   -1.00425302120675    3.96704691705638
H         2.06715611078050   -1.31562076884675    2.00510046362763
H         1.58014159284529   -1.30638874808827    4.23376303707028
H         1.65907764725115   -3.03169500302229    4.46820735498381
H        -0.10522663691561   -3.15580162111335    2.85331289197440
H         2.84060570966478   -3.52298904210322    0.82143422494330
H         1.10037044980616   -4.87663406694883    2.45647802433955
H         2.45366236604378   -4.91628756505026    3.48792936838390
H         2.63985802594048   -5.59861658858746    1.84039177470853
H         7.13495607136317   -1.28847680564734    2.46337581423529
