37
 energy: -56.173486063937 gnorm: 0.130521535892 xtb: 6.4.1 (79825abcba525fcdf90b791dcacef51065a7a4e7)
C         2.73276348766335    2.04648424990839    2.26040797793730
C         4.04057032896344    1.45238013480955    1.77084610191792
O         3.61775529266762    0.31062538285042    1.02241953660817
C         4.51810286510466   -0.76149472016294    0.68999315107039
C         5.78681043152522   -0.37037875145456   -0.07967269926893
C         4.93203771604850   -1.55190546656604    1.95112991886026
O         5.11104564849450   -2.92212618700612    1.54072312571537
C         4.34958681260610   -3.70658588199635    2.48037959692891
O         4.44957453773636   -2.97245072050255    3.71567793768160
C         3.95637853944853   -1.75082303199136    3.12354084381749
C         2.55395482318665   -2.23011073601972    2.67371289755277
C         1.40684273091422   -1.97937796959885    3.65617550593695
O         0.28482858427112   -1.53012980355865    2.90777434228158
C         2.87124787751501   -3.63639258466424    2.08538695949850
C         2.25689332621328   -4.93496411465467    2.59633056783712
C         6.27455848011672   -1.13616621133193    2.57505550094008
O         6.48440978422179    0.06381280892441    2.74054294107860
H         2.88480659438216    3.05433786693544    2.65924610220120
H         2.29894020998632    1.36612274962591    3.00093735151990
H         2.01208250689154    2.17201171411616    1.44674938887425
H         4.60746957989201    1.06146351001619    2.61968870585551
H         4.55152716594032    2.17317936768934    1.12413470162675
H         3.85836718331855   -1.40800048421876    0.09954047143647
H         5.56472080189261    0.32043270837553   -0.89906288528536
H         6.27102143464178   -1.32340827367489   -0.31571182880359
H         6.53803844238149    0.25437811911192    0.41148616015764
H         4.69406524086334   -4.73299073852735    2.63202554760696
H         4.00136102040887   -0.95267971957574    3.86655014436125
H         2.23267433874458   -1.63112992300697    1.81544467472622
H         1.68036134092514   -1.27528512226221    4.45030887879869
H         1.11546401384922   -2.95681285459538    4.05140980480504
H         0.25221121456156   -0.55875383089421    2.92422662759305
H         2.86520786478349   -3.50836999011257    0.99572778952547
H         2.21077799742656   -4.92268524286845    3.68941290326470
H         2.91563615069482   -5.70108018149391    2.17049278997773
H         1.21358723979578   -5.03014162310945    2.28072753550907
H         6.91149115462442   -1.99990079633540    2.82324773054577
