37
 energy: -56.176282336473 gnorm: 0.128624943541 xtb: 6.4.1 (79825abcba525fcdf90b791dcacef51065a7a4e7)
C         3.26146187003322    2.75932775962480    1.72823602193033
C         3.77145433600313    1.62767821189958    0.85515741753506
O         4.02941348216660    0.45968447485567    1.63731246173169
C         4.56786131988937   -0.69157027324265    0.96258211774513
C         5.82781698993286   -0.45633750490326    0.11869030117842
C         4.94165574760647   -1.59638024210013    2.15763602953194
O         5.24550561954013   -2.96024710095932    1.80334117857944
C         4.35272849338079   -3.75973755830402    2.60453707900179
O         4.31425397309541   -3.07136400703596    3.86928034853639
C         3.87194182268408   -1.85251733582276    3.23287198374063
C         2.52029381844347   -2.20361951013350    2.56307413668006
C         1.46481504909754   -2.25390142720394    3.67095598970201
O         0.17747576172770   -2.56943750250797    3.15710920433638
C         2.95219258479585   -3.59242502406045    2.00709421039150
C         1.93795423073700   -4.71087439512729    2.21963713593091
C         6.17557944334010   -1.03428827228246    2.88287337299557
O         6.57945436582159    0.12592887572840    2.83645656405357
H         3.12627133392809    3.62374725346615    1.07061886359775
H         3.93667892727158    2.91994812235437    2.57544389763224
H         2.33287224269877    2.45178944646111    2.21846047018714
H         4.75044930106679    1.97857568474437    0.51875860847343
H         3.11162306202655    1.49807915698031   -0.00895532682044
H         3.75016372568520   -1.17221463612797    0.41284865045721
H         5.51775440876982   -0.16507631403963   -0.88976033061053
H         6.46294704254115   -1.34758402083505    0.14569961437657
H         6.33850621043353    0.39187607801391    0.58305217713289
H         4.78781803159668   -4.76229132217358    2.63195712653939
H         3.90723151525435   -1.04066461685174    3.96141080685639
H         2.33194345604640   -1.35953137710147    1.89175983759452
H         1.31841430883781   -1.30832768678114    4.20543154764776
H         1.78039136207256   -3.01507339571420    4.39034427165205
H        -0.50005281107510   -2.42056144691887    3.83806207039574
H         2.98795863336132   -3.49050502756216    0.91525333800700
H         0.92232295723111   -4.39969622003869    1.95740126563752
H         1.67790577091327   -5.16755741421716    3.18194122934244
H         2.12986850458070   -5.51981195222494    1.50834214206970
H         6.51691174917642   -1.82011114457068    3.57518452086724
