37
 energy: -56.171028398294 gnorm: 0.126146474760 xtb: 6.4.1 (79825abcba525fcdf90b791dcacef51065a7a4e7)
C         2.80212754324464    1.91424252633573    0.86751908806402
C         3.52860473915475    1.48965814675300    2.13043169359012
O         4.79124678327617    0.87750406323413    1.85928367678363
C         4.74192295257255   -0.41853776479701    1.23605231508625
C         5.86785601290144   -0.38006175200162    0.19404921248300
C         4.96611610299360   -1.52031789504109    2.29547439281134
O         5.20775396553842   -2.80814724040789    1.69456750109883
C         4.42568697721492   -3.74561926218294    2.46116275584241
O         4.45988077654879   -3.16705124354358    3.77987568682067
C         3.90977396565963   -1.90408562048975    3.34566010649767
C         2.64404457731279   -2.17949043743010    2.49658090240606
C         1.35807955467755   -2.26392724367922    3.32309785155738
O         0.33303248576938   -1.89968298577969    2.40797567441727
C         3.03711123207595   -3.53944292834579    1.84815297416603
C         1.97429884116667   -4.63266189853561    1.83893297926458
C         6.19395065725806   -1.05325854397544    3.09470034810515
O         6.13014280313175   -0.30041333818093    4.06450752208597
H         3.53964559941875    2.35871805246084    0.19189604833601
H         2.06674740774411    2.67274300053273    1.15625988346058
H         2.31963420661590    1.06235858654486    0.37897794107639
H         2.94515113097534    0.83767675569566    2.78558548241432
H         3.65837919735026    2.36295988396441    2.77801699795743
H         3.71271275836633   -0.57349766480854    0.89171376296872
H         5.59480829332534    0.39502599508916   -0.52888127331705
H         5.83034551691521   -1.36794546308723   -0.27618347038831
H         6.87382712293124   -0.13809079293509    0.54813095682827
H         4.94704407592185   -4.70577132968529    2.49941956529222
H         3.71916851624111   -1.26534993924590    4.20983906881858
H         2.39582873943791   -1.42904803062870    1.73905295125677
H         1.36178257357824   -1.57498809035131    4.17548046602691
H         1.33118281172254   -3.25768489813967    3.77940143272709
H        -0.37316795207949   -1.53034863574539    2.96455355080536
H         3.35795969390234   -3.24424992488209    0.84132591135106
H         1.78745094838363   -5.17492828782549    2.77067404273541
H         2.23730212206482   -5.36207905668245    1.06369518962948
H         1.04294398003620   -4.12456647126601    1.57140955336117
H         7.12457842472795   -1.52856611319211    2.74636901438875
