37
 energy: -56.170144914536 gnorm: 0.127358540901 xtb: 6.4.1 (79825abcba525fcdf90b791dcacef51065a7a4e7)
C         5.25463239638190    3.09940817907536    1.54043295373825
C         4.24952986451380    1.96369482027158    1.59440847193311
O         4.77320899588991    0.77406813041210    1.00021375464262
C         3.99747146477887   -0.42814993235184    1.15343828410805
C         4.16869773355205   -1.15537448249933   -0.18701027363449
C         4.56378580093851   -1.25515625262359    2.32898333836307
O         5.31385391535993   -2.47020244108530    2.13138981426616
C         4.53697006200563   -3.48173497610669    2.80325611986716
O         4.09652029696992   -2.78003841033334    3.98161936640657
C         3.42426249704222   -1.73642315005082    3.24325659188419
C         2.36704500696779   -2.51925687723162    2.42575005564966
C         1.05154947444998   -2.68087368200469    3.19211649738320
O         0.22432518707375   -3.49306069101267    2.36937945140470
C         3.21143392565678   -3.78584374118589    2.09834181202514
C         2.78796748679740   -5.22146614804795    2.38894030338783
C         5.61481651514764   -0.24908009439459    2.82660749341235
O         5.61658791658696    0.53279798922912    3.77531027544712
H         5.40184741586494    3.59950778088454    0.57804737516372
H         6.19753256733787    2.60638426933679    1.79994183157060
H         5.10598932403560    3.88693461032227    2.28533958124982
H         3.36791126282297    2.24003790516642    1.01036438658238
H         3.94847123177304    1.75971747641665    2.62718193325050
H         2.97261298617802   -0.05198623225408    1.25354492123786
H         4.18518340083766   -0.61518097394613   -1.13877905046013
H         3.34759017366395   -1.86578533141328   -0.32679181675283
H         5.14301442766207   -1.62823219000292   -0.03530558423823
H         5.18012184245337   -4.34820367415884    2.97863181381638
H         3.05721881148417   -1.01086014426587    3.97123763540188
H         2.13536243883693   -2.02561312529655    1.47640152852247
H         0.53363962551363   -1.73535905720537    3.38954625891991
H         1.30875365945147   -3.21249151922216    4.11283316582264
H        -0.30728365033484   -4.06894267968361    2.94440800394693
H         3.47329018266277   -3.82670296349846    1.03366099231459
H         1.75559240316179   -5.26942765274064    2.02976376356478
H         2.88003459706642   -5.39545580169407    3.46758065872712
H         3.51495206412905   -5.88524144263709    1.91139718836113
H         6.52642592783067   -0.53801481431838    2.27997675520456
