37
 energy: -56.179862305498 gnorm: 0.129199809701 xtb: 6.4.1 (79825abcba525fcdf90b791dcacef51065a7a4e7)
C         2.96492456871485    2.46286791052642    2.02711708093063
C         4.16882626867038    1.58033775657564    1.75371171945033
O         3.62866109453642    0.30506757091591    1.40097053391748
C         4.49093933336117   -0.68016749512261    0.80400930400351
C         5.62895249099547   -0.12624466235965   -0.06378772745742
C         4.93188056531977   -1.62327660232610    1.94535643071420
O         5.11051287817985   -2.99025060959305    1.52410237550210
C         4.35268948831153   -3.82912990541964    2.41860564462864
O         4.38162948193967   -3.14537604043139    3.68610598108291
C         3.97788335290954   -1.87717197128726    3.12495505932101
C         2.58514668353722   -2.26269924335140    2.56772305420148
C         1.41388978667486   -1.91589576756902    3.49068053657777
O         0.12808208569001   -1.96211655320598    2.88619219055899
C         2.86241094897189   -3.71612712628931    2.08284896671411
C         2.17538611814234   -4.77770584850444    2.93480579193983
C         6.31272904358985   -1.20286708676094    2.47544851956978
O         6.48272883987000   -0.10675432022056    3.00555246861732
H         3.36874537971374    3.42121523539007    2.36837508847811
H         2.48075656802145    1.96684451074096    2.87506772538869
H         2.40500455107430    2.60664577767301    1.09814129021255
H         4.89722621909433    1.58382769017893    2.56866304845557
H         4.61258677570697    2.03443562599305    0.86167147330629
H         3.72971549692741   -1.21117006197851    0.22054567869237
H         5.21512144972931    0.58120297931770   -0.78918849066094
H         6.20094151787826   -0.92292954944978   -0.55016389724340
H         6.23835326350761    0.52200704112624    0.57205984898017
H         4.76459901818726   -4.83820820915914    2.50381321881519
H         3.94913055602450   -1.08262951627961    3.87261445873632
H         2.39744012828116   -1.68584308973301    1.65633578790548
H         1.63257736867333   -0.87368143712184    3.74985620616060
H         1.36508804388673   -2.59556587705889    4.34634261956877
H        -0.02138065312562   -2.50229078378013    2.09197651438562
H         2.60541412509630   -3.90261908982221    1.03263148552083
H         2.41323239248235   -4.55424445863060    3.97912401449126
H         2.53643610332377   -5.77869909504740    2.67047799871064
H         1.09587626410237   -4.78672357718558    2.75668003742613
H         7.09867999110739   -1.95971949600852    2.32453264635912
