37
 energy: -56.175364151665 gnorm: 0.121141886180 xtb: 6.4.1 (79825abcba525fcdf90b791dcacef51065a7a4e7)
C         4.00878733713585    2.48556242056368    1.71679389549164
C         3.25463534199701    1.17183668542665    1.80827449824020
O         3.20766683548269    0.19408946016702    0.76696613935477
C         4.24566809530138   -0.76881706085081    0.51018026925379
C         5.32709000537770   -0.09007468936174   -0.34117839157104
C         4.78846551456722   -1.45215472814096    1.78492642121694
O         5.10313634561319   -2.83300601714802    1.51619907417720
C         4.55455473848398   -3.61544501586296    2.59554994115408
O         4.65664967759322   -2.71191448508331    3.71274427390253
C         3.94070228408321   -1.64438114932929    3.05393112532175
C         2.59837392219934   -2.31131444536927    2.66379172225783
C         1.60617889129651   -2.23235247604731    3.82709732436501
O         0.27464406279094   -2.60938532112683    3.50197395591866
C         3.06125043890452   -3.74785399040135    2.28099878354079
C         2.39625188489690   -4.90657584242039    3.01579366633458
C         6.11023952013976   -0.83288592552117    2.26856253889736
O         6.20083182037707    0.10124566564163    3.06264346150503
H         3.83000717733531    3.02257834798927    0.77998579819576
H         5.08098110842593    2.54129374157680    1.93306383800297
H         3.58412837448211    3.19190883714362    2.43645910981937
H         2.23469500039178    1.55734907075621    1.73194472295037
H         3.46497310002708    0.73000877024501    2.78776935367909
H         3.77064669914340   -1.53412908304678   -0.11472565742701
H         5.56985886432801    0.89327429358815    0.07358975901342
H         4.93574672430649    0.01957573657013   -1.35767593593569
H         6.18248040446561   -0.76570482646474   -0.25324151267061
H         5.21878976134134   -4.46945285564145    2.75249343146727
H         4.02493796849168   -0.81634699906577    3.75989344915259
H         2.01421872138758   -1.76850632125182    1.91362803363897
H         1.77504733553601   -1.24104502875259    4.26298720794657
H         1.97839854218350   -2.85470730357169    4.64600981880743
H        -0.11648056250280   -1.90298848980525    2.96074304717328
H         2.95400745406034   -3.85662253702772    1.19451282978737
H         1.32297751048233   -4.70323157735478    2.95382899897122
H         2.64395501298765   -4.97020032854201    4.08200604498221
H         2.57649287394696   -5.91026540871433    2.61921824352378
H         7.01469288810157   -1.37369929975884    1.94793027434059
