37
 energy: -56.184213229922 gnorm: 0.118014872616 xtb: 6.4.1 (79825abcba525fcdf90b791dcacef51065a7a4e7)
C         2.51330009152224    2.24128812762585    1.52779392508607
C         3.61927662478812    1.24007054550125    1.80594589105123
O         3.48523767345475    0.11426202398071    0.93582663559695
C         4.53666705990544   -0.85072668324920    0.75179509685786
C         5.62791027858273   -0.34232036369263   -0.19988098743894
C         5.02537821865484   -1.57927443253146    2.02338337792125
O         5.34617694663402   -2.94078506701249    1.67501666272084
C         4.48070032368307   -3.76512312277718    2.48097438060704
O         4.61396114186257   -3.01410032121552    3.70290739084593
C         4.08804578333636   -1.75461019794002    3.23031821945539
C         2.69645793632311   -2.17266872845612    2.69406777732897
C         1.59131734664256   -2.01229844779289    3.74140322411397
O         0.29101582185395   -1.90917126333687    3.17622652855955
C         2.99745452179492   -3.59554546319847    2.13796183599301
C         2.28987327241956   -4.73776581082609    2.85868673663051
C         6.31977749295053   -0.88988717465067    2.48572524602868
O         6.35238658813850    0.20370686873716    3.04640521440151
H         1.47528866847810    1.89516789440669    1.55407957154564
H         2.65904507839756    2.76314876744500    0.57600716874173
H         2.57452767169307    3.05431925226799    2.25745829451425
H         3.63793852304058    0.87455238965288    2.83588401662970
H         4.58840700008069    1.72588538169279    1.65221132496620
H         3.98430837659373   -1.66263151733632    0.26438799710739
H         5.29115493293774    0.64457331371411   -0.53241860734741
H         5.72887734088350   -1.07907902610993   -1.00326903908460
H         6.52379149120925   -0.13773061078494    0.39294410827889
H         4.85557885049679   -4.78743384154375    2.57852282188009
H         4.21426851040594   -1.02548905336881    4.03254585949509
H         2.38108100441933   -1.50764841627823    1.88356861339800
H         1.80578813045569   -1.16327865661588    4.40047428992172
H         1.42648470482655   -2.94379471147507    4.29061682785517
H         0.19982557620445   -1.11663347134138    2.62082213621859
H         2.88658689370739   -3.58891929874228    1.04642720803274
H         1.21794445003994   -4.55459317169827    2.97919721407441
H         2.76321002385632   -4.89550354917142    3.83504982428159
H         2.38232484896347   -5.61753867913404    2.21478920219265
H         7.19922292233335   -1.51581636230986    2.26638887545577
