37
 energy: -56.182965566915 gnorm: 0.125109095051 xtb: 6.4.1 (79825abcba525fcdf90b791dcacef51065a7a4e7)
C         2.82909854920781    2.03806013817871    2.02779551818030
C         4.10836350335550    1.58206048469995    1.35064357066604
O         3.75595044479841    0.27731198015287    0.88593379670415
C         4.67030497572753   -0.81915150429941    0.70621675759625
C         5.83193851335607   -0.29971077044430   -0.15155068715908
C         4.98755195047942   -1.56735945251437    2.02002665034357
O         5.16487198547756   -2.94781155292444    1.64467079338184
C         4.31090037801028   -3.69458993806179    2.53416806661791
O         4.34781544919822   -2.91155091996140    3.74263864879501
C         3.92111436848835   -1.67862402083928    3.12291264996701
C         2.51866187062725   -2.09829770064437    2.61709132705670
C         1.58062722694891   -2.03740698807957    3.82554042737951
O         0.24365831607954   -2.31200443843667    3.42810572078798
C         2.85890878991203   -3.51917096433886    2.07877712699275
C         1.90057355713019   -4.65953437700345    2.40427336264178
C         6.31732613505229   -0.99796203498082    2.54153550660008
O         6.34893325946355   -0.10299515471635    3.38379947544075
H         3.01047617175964    3.01484046933875    2.48709957042292
H         2.49858216086949    1.40916760230432    2.86130092061127
H         2.05595857829593    2.12589431231730    1.25856326189797
H         4.91133535605949    1.49911327292796    2.08758339082755
H         4.38538768941563    2.22051844792660    0.50536663929732
H         4.09173405662566   -1.53412239876458    0.10962010327348
H         5.38469939520306    0.15931468004110   -1.03880339877495
H         6.57322800415835   -1.09781344020033   -0.26092188216406
H         6.34575194613995    0.44991344795283    0.45669350734019
H         4.78123598875817   -4.66865096340232    2.69278189323469
H         4.02294141181717   -0.92774556949999    3.90836272657428
H         2.14625281711198   -1.43848275235883    1.82678806136127
H         1.63388469793594   -1.11626023829740    4.41702948254028
H         1.81042322682683   -2.83953950213421    4.53283661922651
H        -0.14140817951207   -1.66938839071611    2.80869127032242
H         2.85218293569509   -3.61743524655733    0.98603640820920
H         2.13754134436415   -5.42632170692877    1.66064048828514
H         0.89514119501089   -4.25659444622281    2.23410012355631
H         1.89118433340524   -5.00686528791969    3.44178225786174
H         7.27151820055567   -1.51698119403803    2.35862385906510
