37
 energy: -56.173763870381 gnorm: 0.126440603693 xtb: 6.4.1 (79825abcba525fcdf90b791dcacef51065a7a4e7)
C         3.45448736581281    3.10091328863640    1.55837055706293
C         3.80261069391339    1.88668748337303    0.71726705383787
O         4.07760700944433    0.77240172269836    1.56889083644628
C         4.44111131854101   -0.49584722314353    0.99444865674784
C         5.65042962228328   -0.49796297741300    0.04971541088870
C         4.81225713994699   -1.44503235024589    2.15542048016970
O         5.05543402738471   -2.80455184411479    1.74243846000188
C         4.34091482526300   -3.65405005461070    2.66220253640020
O         4.35707784607689   -2.91466128768520    3.89830810536165
C         3.77533468191614   -1.76498048512637    3.24558167908760
C         2.43942558000271   -2.27750229077032    2.65268838009197
C         1.31421097913376   -2.23184133900685    3.68988318346440
O         0.11461956817329   -2.67211940131705    3.06700306351525
C         2.88349487585805   -3.69721415610230    2.19263226598418
C         2.21161937377607   -4.98608974032406    2.65324701454445
C         6.10154618197761   -0.94671639992244    2.82914094473436
O         7.10424032059240   -1.63730880179662    2.99961061909445
H         3.79207492706674    4.07471875500565    1.19000196564865
H         3.92294942039257    2.93834399527629    2.53489126267333
H         2.40031302341665    3.03702005111295    1.84439962800078
H         4.63816464292263    2.10248934145378    0.04644405963848
H         2.96281953416419    1.58595213128257    0.08230790761545
H         3.56986759354951   -0.93700662764723    0.49628402967829
H         6.14183952761921    0.46611560443398   -0.11464197831335
H         5.27082902825184   -0.78118083936141   -0.93726537567176
H         6.37785843679414   -1.18961364088964    0.48372968626779
H         4.97913848010747   -4.53734614670491    2.74953747309178
H         3.56292354387366   -0.93807558686707    3.92545578604011
H         2.09607011124987   -1.59498670773077    1.86853086400602
H         1.23880444632764   -1.18224619079014    3.99626672315247
H         1.35961997932282   -2.95905855053098    4.50571638705595
H        -0.17454300583770   -1.98572637434466    2.44237880013093
H         2.91481711339031   -3.70219757115050    1.09592015291341
H         2.26104991949522   -5.07789788093321    3.74239083992236
H         2.64378442177770   -5.83594245271293    2.11176988159988
H         1.13581247473032   -5.01909434401086    2.45651919711307
H         5.89839976589839    0.10672060953335    3.07878481258624
