37
 energy: -56.177094336772 gnorm: 0.128680797295 xtb: 6.4.1 (79825abcba525fcdf90b791dcacef51065a7a4e7)
C         2.41295706759277    2.16406943025393    1.59491375459600
C         3.36655662190467    1.31455147440045    0.77518428697769
O         3.99349525769028    0.38928874258795    1.66588941970903
C         4.83373960875138   -0.55319757150797    0.97575640449510
C         6.07708661651708    0.17155276991488    0.44302637349016
C         5.11528373769362   -1.66937931959373    2.00601286791465
O         5.12084276641168   -3.02474567700435    1.51516307974027
C         4.28342310946216   -3.78412952046715    2.40971064746331
O         4.39712854352634   -3.06666877102799    3.65358970944020
C         4.04571459879155   -1.77704162802795    3.10622061919635
C         2.64907768817255   -2.07633365168752    2.50731844315703
C         1.58000099678950   -1.75205357646264    3.55416291279974
O         0.27831108679785   -1.84213853803806    2.98995369088055
C         2.81629967744878   -3.55092113804415    2.03608653438579
C         1.93269405375190   -4.57040931149296    2.74648634598082
C         6.53433401528510   -1.50852502124593    2.57601852698983
O         6.71885991463221   -1.06653199901023    3.70825775380695
H         1.99437631786339    2.98297544359418    1.00149908773681
H         2.88170442760109    2.68574602262117    2.43610790940124
H         1.61978843094736    1.49853630686947    1.94864768938913
H         4.18111339896654    1.88274299976118    0.31869771896789
H         2.87969590440173    0.81196110354510   -0.06697580712525
H         4.29576947316345   -0.92001602790025    0.09377704747449
H         5.76480669580199    0.78536058477847   -0.40765910195266
H         6.55455339598238   -0.68128755883642   -0.05005464782078
H         6.76629043396511    0.68833169662991    1.11670236064270
H         4.76726366029427   -4.73884623113095    2.63238335412885
H         4.09808893455633   -1.05235099118779    3.92059117704489
H         2.38390057768886   -1.41566651637420    1.67555913500654
H         1.74565162799574   -0.77650856701050    4.02541528036420
H         1.67341311336641   -2.40058113695756    4.43004923399102
H        -0.40856614094048   -1.97695287724596    3.66443913888959
H         2.71288984425476   -3.58071720754105    0.94420651327892
H         0.86990438264304   -4.32997032084159    2.64762484063874
H         2.07356282241982   -4.44265700655047    3.82632387613637
H         2.23538763122010   -5.57595332671007    2.43922512239922
H         7.44403146497953   -1.70673125468918    1.98738886864835
