37
 energy: -56.179902558745 gnorm: 0.128597948767 xtb: 6.4.1 (79825abcba525fcdf90b791dcacef51065a7a4e7)
C         5.03694004945125    3.20381669618352    1.09489575681282
C         4.29561991675238    1.99657823367631    1.63896286430271
O         4.99192128504129    0.79759199481557    1.29238645780741
C         4.12888986355765   -0.35237034880934    1.23461134695995
C         4.23114550282040   -0.93599509175266   -0.18098112849635
C         4.59048316238755   -1.31865430765496    2.34806727226524
O         5.25206979627625   -2.51179005873239    1.88254331230903
C         4.54233675121409   -3.51281180355625    2.63910482666754
O         4.23812587966436   -2.93158335146673    3.92150226800990
C         3.52067806200474   -1.82644214162197    3.32974693003806
C         2.46829506602302   -2.55503090532515    2.45767891715715
C         1.22559938268344   -2.91021607136630    3.27835961646093
O         0.18432676166532   -3.31016863572603    2.39709164372037
C         3.21391047348635   -3.82066683609857    1.94129311065925
C         2.67786590822361   -5.15609357906987    2.44535119517909
C         5.65665050887086   -0.47597116525738    3.06755080135006
O         5.38161393062278    0.23435214050355    4.03252177287900
H         5.40608273847371    2.93204724711209    0.10099791973608
H         5.87451919086332    3.42146999091112    1.76613817582933
H         4.47735543095320    4.14339934465526    1.05985263750827
H         3.28950446963652    2.07878517769624    1.21979933987509
H         4.05218317741353    2.07372484495254    2.70369335339221
H         3.10324102092255   -0.06337973908613    1.49226248751028
H         3.65450386614603   -0.25600386494895   -0.81583616116623
H         3.79142809034361   -1.93079184946601   -0.30535168262267
H         5.23848506020866   -0.95123673281620   -0.60634733240189
H         5.19751325238490   -4.37225630803976    2.80423418842468
H         3.27076678559930   -1.13347801449945    4.13501958579485
H         2.06530347817130   -1.96442628436118    1.62857852191601
H         0.99446469724543   -1.95353641156383    3.76059169712134
H         1.36227953392533   -3.67906688680644    4.04430845380211
H        -0.65301340162576   -3.06526710553607    2.82579963698814
H         3.28709978165632   -3.86922469738520    0.84764379443875
H         1.60326479316095   -5.28800451560322    2.28743243362141
H         2.72790594275222   -5.37493526730240    3.51857906280684
H         3.19371804338779   -5.96407873190399    1.91789675016091
H         6.61568871425974   -0.38667197837126    2.53314326708107
