37
 energy: -56.180578948375 gnorm: 0.121618865541 xtb: 6.4.1 (79825abcba525fcdf90b791dcacef51065a7a4e7)
C         2.71145829847502    2.38622816169230    1.51340753620298
C         3.31610857782603    1.26931023980086    0.68281638514880
O         4.20986742276716    0.57393179744150    1.55468951288814
C         4.87465485909808   -0.56528565694088    0.97952358771553
C         6.17632592209956   -0.17186585051604    0.26829267541203
C         5.06661658040950   -1.59531619491990    2.11475261682133
O         5.18094536055379   -2.93811024256238    1.60307355805182
C         4.26538888770895   -3.67069859284220    2.44165659710686
O         4.23164364552315   -3.04994495596203    3.74105651754248
C         3.94019253585932   -1.76543800077498    3.14831628612237
C         2.55353325229978   -2.02167845152806    2.50771417938008
C         1.55989736175119   -1.99384568754378    3.67213633070624
O         0.25166505873773   -2.25003179183997    3.17843511311364
C         2.83085822679956   -3.44955544936230    1.95211620863761
C         1.94798533620758   -4.57510770512292    2.47980030604154
C         6.37259782838103   -1.34729166334644    2.88765691495319
O         6.61566444435173   -0.55900547989600    3.79919232546727
H         1.85619437656463    2.93393176053194    1.10536065146229
H         3.52501662633916    3.01134229598727    1.89659590592873
H         2.19756948667632    1.95311356349665    2.37683590869073
H         3.78810005354996    1.64579955754268   -0.22833902149924
H         2.51275308124749    0.61216452314826    0.33404208146577
H         4.07219795984732   -0.92506484158955    0.32494196709335
H         6.05409172247428    0.29250429014376   -0.71525382813116
H         6.79755939789075   -1.04904083825707    0.06075222478232
H         6.74862070271437    0.49441772562109    0.91978832716866
H         4.52729238031970   -4.73208606485812    2.44731431257428
H         4.07487143863134   -1.05335648896209    3.96435581722256
H         2.35230007488831   -1.30299273443439    1.70670259292147
H         1.66221499564664   -1.01661134423086    4.15767843459814
H         1.76541504778290   -2.85278143205762    4.31749091579360
H        -0.43472752594280   -1.86006662339341    3.74561959729729
H         2.85770935930635   -3.49821808104391    0.85635421652784
H         0.90887656963716   -4.25162711007254    2.36701880085470
H         2.22345573647446   -4.98111534289572    3.46035505025702
H         2.08654625296041   -5.43805509545072    1.82156455607184
H         7.12770745958712   -2.06938880455958    2.53879417464929
