37
 energy: -56.182043480644 gnorm: 0.119545214166 xtb: 6.4.1 (79825abcba525fcdf90b791dcacef51065a7a4e7)
C         4.16396109252916    2.93002928509204    1.25629650376015
C         3.36424527515851    1.65507658163297    1.45107710548156
O         4.29655473001093    0.68642321648694    1.93587453512933
C         4.44309453376744   -0.51960084229991    1.16476710522582
C         5.41135893033166   -0.46930707461985   -0.02473310256607
C         4.90968746587367   -1.52826306323439    2.23782292040498
O         5.23473407514865   -2.80009320445615    1.64219284239070
C         4.37477645613988   -3.69441897052975    2.37622634102609
O         4.36045966862702   -3.12161716032442    3.69781897289682
C         3.79803171583466   -1.87095565531443    3.24420740292897
C         2.49280311578576   -2.29128280271604    2.52409797405593
C         1.40304119819566   -2.44238303805085    3.58878270077850
O         0.17515527137892   -2.67695973213439    2.91194158443516
C         2.94175334683992   -3.61636637389319    1.84070337605589
C         2.10374866913979   -4.85728871622927    2.12818001540693
C         6.14392565655675   -0.93950849630646    2.94103584430587
O         6.08768582422707   -0.12150195930047    3.85704659242977
H         4.10546792951729    3.51365237063046    2.18037470050704
H         3.97378814026352    3.57696885159984    0.39328920048299
H         5.22681951987471    2.68151566417515    1.18045809277601
H         2.99552251737493    1.32507325279995    0.47646658357028
H         2.57374654387524    1.78428493673509    2.19758967776391
H         3.45560893902175   -0.83159654437428    0.80506426519441
H         4.87911064252152   -0.00224223157334   -0.85930290599950
H         5.69729293053648   -1.51427996586726   -0.18193821078548
H         6.28769701115089    0.15302481102660    0.17685137853792
H         4.90441116828867   -4.64698718436768    2.29096391422437
H         3.82272352278133   -1.15842933663003    4.07053395424941
H         2.18216299522781   -1.62750939840195    1.71075235883669
H         1.18197764598322   -1.51061491084126    4.12183622153028
H         1.66095874221397   -3.17418320517704    4.35978057481693
H        -0.51611276073018   -2.62668909886383    3.59350392497356
H         2.95728715768111   -3.50878186813069    0.74893066548127
H         2.25096653393269   -5.13247029820679    3.17684983350207
H         2.46766738615088   -5.67431189814645    1.49394816697949
H         1.04478844274557   -4.62663329327713    1.97800365363846
H         7.08836137237278   -1.41298219434473    2.62929254876669
