37
 energy: -56.177475672385 gnorm: 0.116725554839 xtb: 6.4.1 (79825abcba525fcdf90b791dcacef51065a7a4e7)
C         4.35276036838511    3.22186640284242    1.74769775959970
C         3.80553856859507    1.89987844843770    1.24184658043000
O         4.67577869467280    0.84159374832532    1.64833695258061
C         4.44005415618652   -0.43614383255267    1.02995582482950
C         5.32901202352441   -0.65061142661326   -0.20241331037683
C         4.68798375345680   -1.42669119134195    2.18922457329395
O         5.07069880792449   -2.69791981589699    1.62754018377112
C         4.43145692864183   -3.72289043061091    2.41427769201363
O         4.24238414932010   -3.05837889603604    3.67823570972071
C         3.59272641518775   -1.87116755101183    3.17354085245236
C         2.39555537277873   -2.49371122494506    2.41322838428524
C         1.17404484648288   -2.41857329473645    3.33313717652888
O        -0.06393556773008   -2.83993331113385    2.77572872084842
C         2.96659482574910   -3.88060979139516    1.99506902670129
C         2.45500024357039   -5.07756236637862    2.78902018056155
C         5.85597279426357   -0.74748120347172    2.92336328830980
O         5.94276858107532   -0.64850934306041    4.14567436465423
H         4.63814433949056    3.31612484682468    2.80013740307880
H         3.64194947259407    4.02416776919137    1.52288995675601
H         5.25968953094435    3.50066010052632    1.20278300616468
H         3.73825053692314    1.85306809218966    0.15188995334020
H         2.82584230402296    1.69335853471538    1.68502692528652
H         3.40064338174060   -0.39227796878405    0.68418673429345
H         5.52941635064603    0.28595211527904   -0.73215984888788
H         4.83867576507922   -1.37389468591704   -0.86186134767694
H         6.29291994671954   -1.11489904521879    0.02390555026958
H         5.04232637414155   -4.62950671480481    2.42164243897199
H         3.43620092954575   -1.02672353629705    3.84698949657057
H         2.15530450876487   -1.96365971861444    1.48589434090901
H         1.05911788663160   -1.36785325020516    3.62294084975534
H         1.21509857159393   -2.93098082055759    4.29866489593996
H        -0.04483285052910   -2.63864457734558    1.82492706839233
H         2.79592395543447   -3.99180578759319    0.91697335738050
H         2.49335292447157   -4.77940844562425    3.84103714922232
H         3.16467346987812   -5.89464632580367    2.61308989459277
H         1.41159874068374   -5.31944509564154    2.56550804726727
H         6.68483969726774   -0.30706087823271    2.34688290283214
