37
 energy: -56.166257358925 gnorm: 0.130853177968 xtb: 6.4.1 (79825abcba525fcdf90b791dcacef51065a7a4e7)
C         3.50245832507328    2.44220903418313    1.06778277929200
C         2.99492739645233    1.11800988008987    1.60805884562628
O         4.18377770920308    0.49622869115173    2.10054427796271
C         4.67277366879523   -0.50119751166920    1.18588667449510
C         5.81872253382450   -0.12894228853640    0.23551654930890
C         5.06078646559687   -1.55718929150014    2.24460506330342
O         5.34575274468515   -2.85844290474583    1.69368252341843
C         4.37492224577458   -3.76936204088215    2.24673344500618
O         4.31548827440975   -3.27286400514691    3.59761141031110
C         3.94243025744106   -1.92560590886171    3.23433989803001
C         2.56950448454369   -2.19545554264431    2.57017861461744
C         1.43360710843024   -2.21401500462345    3.59651120451297
O         0.24999187533345   -1.86314932250214    2.89167631275269
C         2.95184601670874   -3.47172909233314    1.76434256310692
C         2.03329003971504   -4.68510261664140    1.85795094510072
C         6.18439627852417   -1.16205622995151    3.21715589193388
O         6.59900691667331   -0.03659608068264    3.48699060058329
H         3.86420382859519    2.97326811390051    1.95382697425396
H         2.66614010433171    2.93280897714929    0.55850712553346
H         4.31775366394694    2.26918102807044    0.35888691871300
H         2.54996934473594    0.48318586483316    0.83751673651160
H         2.30427221005122    1.10328776019748    2.45755442472728
H         3.88097901218845   -0.94457084803753    0.57079598878069
H         5.51097129094684    0.37926503320965   -0.68369998934274
H         6.23509802471191   -1.04774928026439   -0.18976594185090
H         6.63190175795468    0.35515901914534    0.78350120125810
H         4.71634573792482   -4.80731458479742    2.28213579031627
H         3.87051455294580   -1.19711302364652    4.04381211138580
H         2.32192825812870   -1.31518707262681    1.96813463415235
H         1.58741166281829   -1.49570477272463    4.40988784755769
H         1.29844237559942   -3.12762225652558    4.18263657680696
H        -0.49359077524850   -1.63504129828217    3.47473499168522
H         3.04535360343800   -3.15121606328870    0.71920567683038
H         2.08463294069885   -5.07651585355593    2.87837535463197
H         2.12528586781350   -5.56836518009262    1.21483528000031
H         1.03003599596812   -4.25198666827161    1.80278276959842
H         6.56728216274572   -2.06699459775644    3.71495605287906
