37
 energy: -56.175984169709 gnorm: 0.123507481196 xtb: 6.4.1 (79825abcba525fcdf90b791dcacef51065a7a4e7)
C         2.78476934416407    1.84781349076870    1.86668390559921
C         4.21317965298475    1.62546418154325    2.32841330591633
O         5.06926179165063    0.95884858910526    1.39821664336710
C         4.68271335845406   -0.38528375370640    1.05989259780874
C         5.67822034582734   -0.76961188359448   -0.04293734313809
C         4.79223031741494   -1.27359250743431    2.31904738792799
O         5.32411202557091   -2.56216817324291    1.95209094458567
C         4.36730825252456   -3.48860116261400    2.50381490097433
O         4.04874642575531   -2.88750755882668    3.77350731169935
C         3.59016574498371   -1.64114191926899    3.20559948458593
C         2.47635716039202   -2.10900280212626    2.23637771367183
C         1.11946504153108   -2.22062873035479    2.93662719186553
O         0.26031789526168   -2.48487196136379    1.83531630231823
C         3.04937408901383   -3.46291730399345    1.72354431794177
C         2.29987303292014   -4.74581723212169    2.06588752686661
C         6.04401227334618   -0.91731240178581    3.13794340634755
O         6.23120307636455   -0.67606566748753    4.32879726680761
H         2.89976206330727    2.44984574285721    0.95988088847512
H         2.28248314351349    2.43721101192442    2.64114971846902
H         2.26039791778930    0.89367867633970    1.75787267716848
H         4.24344492588818    1.16587814541694    3.31966959197269
H         4.71394165637133    2.58591213187134    2.48854205342805
H         3.70757507109734   -0.36173263719669    0.55948685946682
H         5.30517188658258   -0.38984648258193   -0.99926242045420
H         5.79365797265857   -1.85824116721637   -0.04362898898504
H         6.60147874914241   -0.28547047338855    0.28736968599110
H         4.88731040444534   -4.43634896787986    2.66672799875198
H         3.35627546836238   -0.86170640685557    3.93285090256711
H         2.23551863570115   -1.35451286769071    1.48049064415163
H         0.89309291593118   -1.25510190892221    3.40323261071177
H         1.23393228335875   -3.08225271229926    3.60069950789732
H        -0.62871570275497   -2.15535374816081    2.04965916385949
H         3.31594032267600   -3.48290770259137    0.65943614250245
H         2.11778342624512   -4.82991373386877    3.14146994836984
H         2.94296883361204   -5.58479574753001    1.77475766652117
H         1.36027609585658   -4.78824422134601    1.50686232624888
H         6.96135135087544   -1.05835750083892    2.54471886920266
