37
 energy: -56.171105921208 gnorm: 0.129453844397 xtb: 6.4.1 (79825abcba525fcdf90b791dcacef51065a7a4e7)
C         3.85270686036777    2.65362776296105    0.64184829394503
C         3.24877098437292    1.69299656519664    1.64953794057589
O         4.22284513855971    0.76737064608254    2.13627709751056
C         4.51759177120124   -0.37005763845557    1.30564123854237
C         5.71079514729917   -0.06932371913159    0.38868924596453
C         4.87604299565711   -1.49124537433256    2.30614510149150
O         5.02069739781596   -2.72575403205001    1.57604522148063
C         4.30684894543355   -3.68419813815335    2.38224378959893
O         4.17167468680757   -3.08587022559723    3.68556477622508
C         3.68519261424431   -1.80526363779552    3.22771674789881
C         2.43728297261002   -2.26665905862769    2.43481703038475
C         1.30082302589823   -2.16935082865251    3.45606909017934
O         0.04296414020606   -2.72697242780621    3.09872733063714
C         2.84478130901329   -3.68044548732613    1.92532319330413
C         2.24775146064309   -4.93511659650154    2.55312783802767
C         6.12031407579551   -0.90680219460779    2.99512976160833
O         7.21376277729827   -1.46765732112778    3.02954988031376
H         3.09168687791545    3.38655508772975    0.35614916553083
H         4.23767878250847    2.22985981108595   -0.29179805326222
H         4.70319209016337    3.15910498411851    1.10912355865656
H         2.36978031824543    1.14718585356964    1.29713133965012
H         2.93581941465671    2.23387233273177    2.54863681362176
H         3.62551845580577   -0.52159520870993    0.68669309902831
H         6.33567863440543    0.75085399428202    0.75580463027389
H         5.42504472890596    0.06049009352298   -0.66008866547455
H         6.34709416736542   -0.95358114981350    0.48415687993105
H         4.69298629958166   -4.69865452677987    2.25207087754523
H         3.65954553688221   -1.13687700639304    4.09010907361254
H         2.20944963287512   -1.61874006700545    1.58222307844630
H         1.32762233743609   -1.11077027018698    3.73872787465354
H         1.76469959857910   -2.64686038823347    4.32399409584352
H        -0.36124240712857   -2.34580399917324    2.30108483851606
H         2.74405306737888   -3.64037665775463    0.83352116094088
H         2.62895702078669   -5.06919930566389    3.56989257588286
H         2.60060425764494   -5.79725070777332    1.97482564658414
H         1.15630992754379   -4.94067876603963    2.62978331457396
H         5.88207988559454    0.08069693832870    3.42105224738010
