37
 energy: -56.177785368008 gnorm: 0.126869503583 xtb: 6.4.1 (79825abcba525fcdf90b791dcacef51065a7a4e7)
C         3.61035590133948    2.46995042582292    0.33936176369691
C         2.90945559189087    1.32941929304163    1.05414619885456
O         3.79870104675479    0.61706538926318    1.91688214191130
C         4.79682177142387   -0.23195715830098    1.32233145729927
C         6.13879465484157    0.47419691286619    1.08689235647646
C         4.96791976245727   -1.51652366791629    2.16326663160900
O         4.94496869695957   -2.73043641430508    1.38617481211448
C         4.28523241029538   -3.72427677516238    2.19560689258208
O         4.44215217035851   -3.23970847083083    3.54300577815397
C         3.92581085971790   -1.93100710648410    3.21599608222605
C         2.52199822443347   -2.22498803311575    2.63141100562838
C         1.44274385451955   -2.05403150282738    3.70376817235537
O         0.11323120658445   -2.29028863804670    3.25944542666843
C         2.78411370211633   -3.58671592816244    1.92329822116748
C         1.95370866950214   -4.74545129733447    2.46417051207913
C         6.34368469102368   -1.63212808778774    2.84031247567785
O         6.66019176203050   -1.19946330918073    3.94665686295822
H         4.10608143054696    2.99263128841363    1.16338772872727
H         2.83118784720356    3.14929743818779   -0.02238807760337
H         4.31960048681717    2.21800335967594   -0.45478766965927
H         2.57969911482939    0.68496280519288    0.23520733739621
H         2.01165565849143    1.65735877136600    1.58825766904876
H         4.44170359663515   -0.54692856704825    0.33413134020642
H         6.62835466280999    0.75257136344628    2.02539290436567
H         6.15910189786312    1.42260942429524    0.54050291773216
H         6.75449067313414   -0.27580703462339    0.58259656240277
H         4.74179837879301   -4.68418340724119    1.94007679997408
H         3.82575977825656   -1.29447662495256    4.09686944012857
H         2.33631495830882   -1.45476783934195    1.87582767395124
H         1.50355976215671   -1.07042538792946    4.18337996073488
H         1.73942467709815   -2.83540510982388    4.40940722811903
H        -0.00337768865116   -1.79248020536056    2.43270786982663
H         2.57193167127270   -3.50976763155006    0.84959380325470
H         1.89187798523777   -4.63918322486792    3.55136436444497
H         2.30939155693557   -5.74044765815041    2.17144931704067
H         0.90491603551259   -4.73615488005283    2.15256301118927
H         6.97713618323372   -2.28738380090976    2.22168551130203
