37
 energy: -56.178983778583 gnorm: 0.123042154722 xtb: 6.4.1 (79825abcba525fcdf90b791dcacef51065a7a4e7)
C         3.75588590328575    2.74715971612613    0.58334664879169
C         3.20120089113975    1.62001163338079    1.43472846576649
O         4.19444250955499    0.78641923890293    2.03565575805886
C         4.48402102810610   -0.43625049056938    1.33437292680659
C         5.61624668695117   -0.38056440684968    0.29999375811886
C         4.91165652048857   -1.42501423880130    2.44163591469117
O         5.28264953201564   -2.74106471966827    1.98517373680912
C         4.37573680430948   -3.66949412593393    2.61261217642871
O         4.21011592879393   -3.09503269661333    3.92313793378207
C         3.77612227877740   -1.82015935196262    3.40103611503717
C         2.46870039246945   -2.25137625654386    2.69142059795636
C         1.31221459834834   -2.36737037446140    3.68794046190592
O         0.09415149656275   -2.76880353145145    3.07473767226664
C         3.03648634557087   -3.46474328777950    1.89782718046917
C         2.07263870505362   -4.64409372748903    1.96792132206258
C         6.22283451520473   -1.02164265217956    3.13632137059857
O         7.31159825869725   -1.07986600591188    2.56836287089262
H         2.91779673557285    3.29712181657723    0.14390825312394
H         4.31738183138980    2.34783507536606   -0.26797016277695
H         4.35789248724914    3.48828073216314    1.11767447980667
H         2.44420327569376    1.00573346385645    0.94041957876270
H         2.65376138551537    2.04029908025082    2.28474759111246
H         3.62339511989229   -0.82295565475960    0.77612799887020
H         6.39865739005704    0.34243315176989    0.55109649511356
H         5.13429037955737   -0.03711191160449   -0.62098319315731
H         6.00378434880740   -1.39877361488980    0.20530330572393
H         4.60660053116925   -4.73659549723426    2.66887416115149
H         3.51797938614589   -1.14041116632902    4.21493024257946
H         2.20373774203525   -1.50106286938526    1.93945774961515
H         1.14716038554793   -1.38488129436483    4.14475476071231
H         1.54581645752914   -3.10483897204519    4.46128443567777
H        -0.17446474874496   -2.02972492862170    2.50332365178063
H         3.14035753471242   -3.26956971306118    0.82316377891633
H         2.01365655587913   -5.06311502785433    2.97690528927627
H         2.37369414286700   -5.46560686273662    1.30709188727002
H         1.08908263463199   -4.24813237664414    1.69776638216221
H         6.12302810940652   -0.86746737858155    4.22241009170085
