37
 energy: -56.174960992953 gnorm: 0.124162280256 xtb: 6.4.1 (79825abcba525fcdf90b791dcacef51065a7a4e7)
C         2.59807876268003    2.31556492132970    1.76487506066703
C         3.35586078431663    1.33791660172043    0.88569394565575
O         4.13017335830501    0.45046029821707    1.69524946995711
C         4.77359517295475   -0.68494332101016    1.08907986994313
C         5.96269872997393   -0.29759025339501    0.19971690935568
C         5.14239465611784   -1.72518445422305    2.17002507371964
O         5.20605100785733   -3.02414348947747    1.54822471958689
C         4.30962559373442   -3.82294220473408    2.34602980149855
O         4.44179885194103   -3.20070505461692    3.63841717854947
C         4.04766514291376   -1.86919780090925    3.24093772356812
C         2.65421908325329   -2.09383745162756    2.60320790627547
C         1.44724921586338   -1.91460547313678    3.52790543982251
O         0.34184724763859   -1.88203868017565    2.63466982275978
C         2.86052180007283   -3.50056707545819    1.96839933242231
C         2.04760619454172   -4.55878786730406    2.70604417253250
C         6.40855429596184   -1.29765138956496    2.93064291253343
O         6.62597841966434   -0.17282211170944    3.37657916804326
H         2.44399155742130    3.28951180741318    1.28985667723347
H         3.19940616681216    2.66013996738731    2.61290309696645
H         1.65311921386324    2.00761225938916    2.22247218430558
H         4.11681940865683    1.84256718612221    0.28486610318492
H         2.65687854548658    0.83579267297375    0.20881917898768
H         4.03779105470806   -1.17753241509471    0.44270263293297
H         5.62268329989759    0.17281539685423   -0.72821228783667
H         6.50294730789888   -1.17010254559373   -0.18145734314898
H         6.64824198640483    0.36346484429318    0.73724673317100
H         4.61416950386768   -4.87290394502159    2.34750110305943
H         3.88741951358450   -1.15534749837591    4.05078838578068
H         2.53182713478052   -1.32128655130581    1.83717341557639
H         1.54814112945548   -0.93695428960918    4.01290645046556
H         1.31701976252122   -2.72032946118938    4.25614977685401
H        -0.49210454164302   -1.79603599148684    3.12663913419135
H         2.66590686163314   -3.55379743405319    0.88993981309070
H         1.03486368317953   -4.18853661357786    2.52064457879077
H         2.26682980525791   -4.41062324387719    3.77009398724228
H         2.28824310503309   -5.59144131987129    2.43609537533053
H         7.15802194123750   -2.10424843527734    2.89871327894056
