37
 energy: -56.184915374625 gnorm: 0.120459128092 xtb: 6.4.1 (79825abcba525fcdf90b791dcacef51065a7a4e7)
C         2.98429209241453    2.66575764046971    1.60326116250495
C         3.84871182277797    1.77770071196332    0.72740575898783
O         4.40540144818900    0.78460843859757    1.59134047932394
C         4.63980392570934   -0.48853909915118    0.96306870945134
C         5.89966768136586   -0.39289445145747    0.09210857660864
C         4.88135147057533   -1.47981402137832    2.12306266364592
O         4.99363525812410   -2.79338277926291    1.54004308208275
C         4.30333726254542   -3.73356023414674    2.38721831309900
O         4.32841173624632   -3.03901491823004    3.64892035335080
C         3.81031478553458   -1.77208651052423    3.18771453277496
C         2.45869678916600   -2.25538240279778    2.60598603693285
C         1.39824088950719   -2.20765718504439    3.70921831425703
O         0.08402100623760   -2.40270464393895    3.20362307134130
C         2.80453134909166   -3.67799515700544    2.07588949081830
C         2.10763692659548   -4.84043892229036    2.77434891592331
C         6.10778283638191   -0.94537875914525    2.88117167863295
O         7.07261483860779   -1.59323947028409    3.28210682339596
H         2.37570682129213    3.37088169640254    1.02847259007845
H         3.61483554218454    3.35443657127727    2.17563730542983
H         2.34196382040117    2.15195334161388    2.32478597385850
H         4.56726288117311    2.46230489114120    0.26944743238619
H         3.18273307150919    1.32334017037330   -0.01346728183299
H         3.80122866844774   -0.79497094867317    0.32687197205319
H         6.53437494548392    0.41627734829587    0.46671803741301
H         5.68108262388361   -0.21502150479022   -0.96572970051050
H         6.44603657397277   -1.33948746829997    0.12877467343807
H         4.73315742633233   -4.73845187434850    2.36239448426107
H         3.79102917245915   -1.01612637993899    3.97465248296651
H         2.14162746129680   -1.54307293690514    1.83741218289792
H         1.47869552624225   -1.20759242715559    4.15035834005624
H         1.51027102725196   -2.92027451791198    4.53148131819940
H        -0.24781795552153   -1.62865689809352    2.71819661839088
H         2.64862134328378   -3.76364315229645    0.99323540950118
H         2.27815633284514   -4.74304929553916    3.85070609692912
H         2.41917541312233   -5.82297556596067    2.40047826607382
H         1.03404920306628   -4.67580809308940    2.64222126865860
H         5.90918646678441    0.07380201588830    3.24879930047546
