37
 energy: -56.172980786194 gnorm: 0.130961095659 xtb: 6.4.1 (79825abcba525fcdf90b791dcacef51065a7a4e7)
C         3.78909861003641    3.08034282395695    1.32756157004055
C         3.55128722101318    1.72244802146528    1.96203514071731
O         4.67770380683927    0.86896510241937    1.74926441219888
C         4.54507066370275   -0.39580261038547    1.07595491068302
C         5.63372987492572   -0.53462680754678    0.00332956836321
C         4.77411830882457   -1.50687138447697    2.12458285257814
O         4.99428838111727   -2.82024562167721    1.57271724512293
C         4.39499292602254   -3.75798254939230    2.48903884193087
O         4.34814191725994   -3.03664950965370    3.73499132883950
C         3.71858597787970   -1.85784015168993    3.18698524830697
C         2.46867377073176   -2.40319471537038    2.45270869543726
C         1.12564798411636   -2.26368932443221    3.17436362950296
O         0.00727246741750   -2.48433539457938    2.32501359985664
C         2.91966559855761   -3.84790398724647    2.08685019479463
C         2.35596853153458   -5.01629987468802    2.88802407483279
C         6.11824053606713   -1.06026655244817    2.72321784276548
O         6.19075277682690   -0.47190414627700    3.80022525716023
H         4.51719689288545    3.64608387260779    1.91727999879245
H         2.88247167286484    3.69316996679233    1.28341806000355
H         4.22692148518526    2.91197215907255    0.33905715972774
H         2.68380215852187    1.26978877241329    1.47490722478964
H         3.32911415012395    1.80330782814480    3.03113049595565
H         3.59802796424236   -0.40187338278418    0.52375158871303
H         6.57068138400804   -0.11865910830976    0.38678401097196
H         5.36636615813645    0.08438235155036   -0.85909976014795
H         5.65335126700653   -1.58800905125058   -0.28976182795400
H         4.98940581476341   -4.67113438353655    2.57845839494692
H         3.58788034062947   -1.13349894647707    3.99281702295870
H         2.35011523625368   -2.01147744243814    1.43726546068398
H         1.16073971870834   -1.35609397718668    3.78775277158726
H         0.99034472046643   -3.08647527653969    3.88232335306843
H        -0.00557953803073   -1.71817818463501    1.72689671570963
H         3.00578781906828   -3.97279840333669    1.00021882953797
H         2.62977059093252   -5.17802838559794    3.93491600211246
H         2.66211864194204   -5.95930031453937    2.41979760073780
H         1.26958172033409   -4.89025343969758    2.92008056866620
H         6.98433782664667   -1.50163624643423    2.20515574654207
