37
 energy: -56.175647692005 gnorm: 0.122379763181 xtb: 6.4.1 (79825abcba525fcdf90b791dcacef51065a7a4e7)
C         5.65595944637607    3.15394062727543    1.26788461977564
C         4.51016334282569    2.16328158141749    1.36134710431274
O         4.96457087103724    0.81991392866197    1.18415791384834
C         3.99093827859500   -0.23815349719668    1.12841159120622
C         4.03881277719305   -0.87118210729996   -0.26871372590197
C         4.42621450750840   -1.20259326055041    2.25399949641408
O         5.05909213258434   -2.40815471326069    1.78063904560459
C         4.53789394296548   -3.45302231980194    2.62607091917692
O         4.29068370211138   -2.79472783055152    3.88323020420389
C         3.44026033629864   -1.79971875215481    3.27250933545169
C         2.32503700605628   -2.63182835998450    2.59227046385976
C         1.28945067829033   -3.11775786089795    3.60981627749023
O         0.17177981438140   -3.61851493823315    2.88808350410733
C         3.18582796625634   -3.77758767006224    1.98341448450017
C         2.70713791003863   -5.19464101089980    2.27938518246720
C         5.39661115531228   -0.38305563868853    3.12070187415267
O         4.98963531904162    0.38062850282508    3.99393187329126
H         6.23368170595914    3.02998455666871    0.34656504485841
H         6.28786976151772    2.87657941702009    2.11831879040118
H         5.21087854976904    4.13449806058719    1.46176252318833
H         3.72546243799606    2.27988985137154    0.60943530365929
H         3.94640938306950    2.16831600373147    2.29997387158270
H         2.94827474242954    0.09911986635737    1.15931156159105
H         4.39032392556724   -0.17430717836969   -1.03601409553239
H         3.06412712372973   -1.19818136058238   -0.64487785636176
H         4.75113166907616   -1.69155756530690   -0.39316316253017
H         5.19935216219176   -4.25790980949371    2.95742873915688
H         3.00784654719392   -1.06832881233082    3.95749562048172
H         1.79146311762962   -2.01935282350150    1.85824307153441
H         0.85060378668596   -2.23358569394403    4.08611451106292
H         1.68737179689705   -3.73961659965287    4.41693534992257
H         0.35168068478729   -4.42252503131861    2.37222567012969
H         3.36144506776402   -3.61355552000002    0.91288400417193
H         1.85905587164116   -5.49937203803751    1.65889967598429
H         2.45123818846572   -5.30598836804150    3.33972987439983
H         3.51439697418675   -5.87014479862316    1.98075651883408
H         6.46132692649648   -0.43530371002485    2.84326606206536
