37
 energy: -56.179815761253 gnorm: 0.126830980994 xtb: 6.4.1 (79825abcba525fcdf90b791dcacef51065a7a4e7)
C         2.96100955122130    2.30628813950330    1.95024041247845
C         4.14178854518550    1.50085300025863    1.44031446454530
O         3.53816078192315    0.38634894562723    0.77998648540041
C         4.33023180519801   -0.80865685472148    0.65686366785578
C         5.48029676399987   -0.58520531812666   -0.33429532791905
C         4.86765285334163   -1.41449592544546    1.97242242800785
O         5.30849868189866   -2.76732499227747    1.74114142416527
C         4.56407369237961   -3.56661770372502    2.68194611636633
O         4.43155213043973   -2.75913593971479    3.86741025244672
C         3.89184590086626   -1.63329147884179    3.14116353253853
C         2.56243294145962   -2.21055560131992    2.59501194484568
C         1.47809660205402   -2.24558451851948    3.67526820908083
O         0.18008364847099   -2.41841116526422    3.12197145108278
C         3.11561344507512   -3.60715152873865    2.18520449734596
C         2.27136977256693   -4.74993004390049    2.73846107026940
C         6.16959230310784   -0.81030517134439    2.52413929362362
O         6.20761051214928   -0.13692556472539    3.55199523802303
H         2.42650844192858    1.78527135821497    2.75074522063461
H         2.33719731147603    2.40400646187489    1.05537305880496
H         3.23995325524548    3.29200074378645    2.33460949627345
H         4.66909100967826    1.30382384873926    2.37725414227899
H         4.84571346134769    2.12524449078729    0.88041354475947
H         3.64121073513864   -1.52494741891592    0.19422660790178
H         5.19424685842209   -0.67654660131003   -1.38680508240535
H         6.19926456725430   -1.38636176007647   -0.13511275396277
H         5.83573410230780    0.44807140401147   -0.29064641315098
H         5.15555126529354   -4.44348958013314    2.95838565075780
H         3.81127604468991   -0.74255302101219    3.76663337607215
H         2.31150995496227   -1.59973481237890    1.72176561466379
H         1.45239389706221   -1.35459165851312    4.31298138584985
H         1.71091818259406   -3.05534612909516    4.37281456969299
H         0.22419151440249   -1.83754682804045    2.34379603893311
H         3.09522069343775   -3.76322065455268    1.09938224796309
H         1.21210438144684   -4.48069067930363    2.78918968068155
H         2.58556163992538   -4.96155571662437    3.76739829022188
H         2.35046030594350   -5.66693641956683    2.14685678759817
H         7.04531004103807   -1.08960307264149    1.91715396581973
