37
 energy: -56.175254171560 gnorm: 0.117641703603 xtb: 6.4.1 (79825abcba525fcdf90b791dcacef51065a7a4e7)
C         4.20364574081474    3.09502099178467    1.69726235567249
C         3.99071849807512    1.61259255873900    1.94232809651339
O         4.88344671434529    0.84867851483387    1.12870009819839
C         4.36353463691336   -0.44356659938094    0.76763396892880
C         5.25968339451406   -0.92187736453315   -0.38263231927666
C         4.68939185396425   -1.35929053742941    1.96839387020293
O         5.18212474652893   -2.66843806422269    1.62006974833830
C         4.54029309982683   -3.56102024509619    2.55253966684622
O         4.31727591337321   -2.77042455309968    3.73581301327370
C         3.60712135302193   -1.76158902291431    2.98469761884642
C         2.41110006569681   -2.58395152202503    2.44422793122963
C         1.20666673426866   -2.48259378607980    3.38392631703937
O         0.01643352556567   -2.60815442964432    2.61683866120714
C         3.10914128989659   -3.94790749119164    2.16711107302490
C         2.53245565598478   -5.18989516537779    2.83769542922792
C         5.71361149905784   -0.55263355108333    2.78372400500205
O         5.52970518984554    0.07378313385854    3.82543128182302
H         4.25046251978216    3.24104674441720    0.61354535259616
H         5.20294415482145    3.28790022628116    2.10183428461649
H         3.43098921347748    3.63688482661724    2.25094457536313
H         2.99772599274282    1.28958267905535    1.61928807736066
H         4.07339952664813    1.35328582128440    3.00288829867276
H         3.29152072729319   -0.54178758362514    0.56028356457215
H         5.04814066523842   -0.48178403727605   -1.36217922640665
H         5.19840702231783   -1.99404531040286   -0.59509686237598
H         6.27915110044222   -0.64257240180460   -0.10231806489770
H         5.24221015918518   -4.35634095195147    2.81701329095191
H         3.39235136572840   -0.99112347943483    3.72724449992262
H         2.06828149837734   -2.06194067628939    1.54500396586678
H         1.23384814887673   -1.47028804535164    3.80309848112667
H         1.12973605630197   -3.21035311379213    4.19690772452124
H        -0.74778194808494   -2.30104216313501    3.13313569581135
H         3.07961862587030   -4.13572533016162    1.08653884679168
H         1.44352200240283   -5.09361938373623    2.88309252932663
H         2.91047256598594   -5.35386831689134    3.85378096433548
H         2.65379097582755   -6.03044167091792    2.14783241599486
H         6.73282077052315   -0.83505583032969    2.47587618262289
