37
 energy: -56.176792648951 gnorm: 0.135306308487 xtb: 6.4.1 (79825abcba525fcdf90b791dcacef51065a7a4e7)
C         3.82883635712078    2.67390585981217    0.54375926584243
C         3.16361494143946    1.57614980960060    1.35332790782701
O         4.12784852684677    0.74477979394438    2.00263237732513
C         4.59716465666761   -0.42921803599735    1.31557629108192
C         5.67428773415400   -0.15239846674662    0.25814878285946
C         4.91308145724335   -1.50956657784503    2.37368820064567
O         5.17925386994703   -2.75788444467374    1.70373511605246
C         4.28321048876309   -3.63979154854345    2.40906977507820
O         4.21698316483235   -3.16120264701982    3.76608141056282
C         3.80659379741335   -1.82730790879811    3.39386070419310
C         2.45258591118047   -2.22914960873169    2.75821922732433
C         1.36531382573148   -2.43005887797125    3.81720022606800
O         0.10262501414419   -2.64253778473695    3.19969423860347
C         2.84100330805645   -3.48109287249680    1.91786159731447
C         2.07349216652409   -4.79190806031405    2.05004750437509
C         6.08985706850042   -0.90139309021598    3.15459052416770
O         7.27216934046636   -1.20160502551775    3.00167292594602
H         3.09029935554860    3.45648815996366    0.34354460677612
H         4.23440985434600    2.29679377572177   -0.40110833026170
H         4.68189474211290    3.13366063292887    1.05179022968890
H         2.61965207460845    0.94884760383377    0.64246879380926
H         2.50978546061718    1.87256701799322    2.18007328070341
H         3.73894089102451   -0.86674061274953    0.79223967265358
H         6.55809503179480    0.27910630744721    0.73839127253150
H         5.37356503685343    0.48262753312662   -0.58134384427398
H         5.98937880343097   -1.16469178277845   -0.00995861454727
H         4.76129830575257   -4.62283084572939    2.39375331201251
H         3.85632738895434   -1.18975924266400    4.27826856954157
H         2.09704995635902   -1.36630063910654    2.18576018485882
H         1.24975866564239   -1.57107450137599    4.48802049719067
H         1.63476850413269   -3.19512011503212    4.55107088649373
H        -0.02429117110989   -2.00600482754166    2.47607560429512
H         2.78519592358826   -3.13612605717222    0.87782947688981
H         1.70922565904595   -4.88922780500134    3.07715274186329
H         2.83208094053549   -5.54413108858909    1.80323311872732
H         1.17968862529023   -4.77579058749710    1.41916947769005
H         5.77146725083314   -0.12549378841428    3.86868312934860
