37
 energy: -56.181716185200 gnorm: 0.128686848529 xtb: 6.4.1 (79825abcba525fcdf90b791dcacef51065a7a4e7)
C         3.72185243733377    2.62985147626766    2.20658659044965
C         3.37423257558156    1.29635488056895    1.57102658482390
O         4.51471218280631    0.70873156262851    0.94132515113986
C         4.57605126729746   -0.70835028638863    0.69906261615381
C         5.64793312799108   -0.99836223035058   -0.36015335794428
C         4.84801783407518   -1.42227748648128    2.04178348572272
O         5.29406011042760   -2.76543240315306    1.76798874778134
C         4.43794754571740   -3.55903698113893    2.61381018927517
O         4.29877083980489   -2.73831023834919    3.78937449222344
C         3.75444774663617   -1.58504263890895    3.11119378691205
C         2.46159972551196   -2.17887090675532    2.49901229910211
C         1.35769439644341   -2.27954775363459    3.55505352809677
O         0.05794024660123   -2.60761427877648    3.08191985833893
C         3.00482586673111   -3.57455926296498    2.07311285922843
C         2.25310869890475   -4.78625134237718    2.61302630351969
C         6.07890099055487   -0.73062765750339    2.65090700221698
O         5.95527313511588    0.21909790357166    3.42169285410216
H         4.22056350416700    3.20693418343685    1.42158933583753
H         4.52795277164319    2.32902904233138    2.88421943679591
H         2.83116117865072    3.12616563201211    2.60347430710420
H         2.54511448950847    1.45519598457763    0.87672331215366
H         3.11223649468338    0.65269939317072    2.41715289190583
H         3.60037959189807   -1.08289945000427    0.36795394561182
H         5.37350405036733   -0.76164204372298   -1.39291508764950
H         5.87312233029762   -2.06688330842971   -0.28274169664077
H         6.58400073543996   -0.45693814177828   -0.19724511335615
H         5.00963741858875   -4.46292965163696    2.84034394440033
H         3.72138718974460   -0.75569905204281    3.81986522927760
H         2.19326094451965   -1.61184665320062    1.60173792433203
H         1.29862249198488   -1.30266355828965    4.04842435347416
H         1.45483121649385   -3.13529923521667    4.22940099683944
H        -0.12883719635969   -2.07559998822080    2.29009864548230
H         2.98688230258526   -3.62498587968487    0.97724855960925
H         1.16839205899409   -4.72327476084798    2.74159593148477
H         2.65372755090378   -4.98033487606168    3.61504919210047
H         2.43189950107420   -5.65651847517728    1.97441797819119
H         7.01927143018808   -1.12842911578249    2.23765466433313
