37
 energy: -56.178345776534 gnorm: 0.122898342766 xtb: 6.4.1 (79825abcba525fcdf90b791dcacef51065a7a4e7)
C         3.03443652880729    2.69249016993573    1.57517224881247
C         4.03047120018773    1.76974190797268    0.89735232832434
O         4.16757539031424    0.59533528107362    1.70015387451480
C         4.67143776903545   -0.59086368260612    1.06013096232591
C         5.90597659510841   -0.36678654700627    0.17657028578929
C         4.95407610200014   -1.62519941420125    2.17225612706967
O         5.14718515041806   -2.96584775678096    1.67894757915886
C         4.16219118989827   -3.77099378589502    2.35694288237625
O         4.20810661134230   -3.22677718886918    3.68984724629134
C         3.88681947672533   -1.88972741543006    3.24790229947931
C         2.49605385716296   -2.21848406390068    2.65078901294227
C         1.54727398982959   -2.35740597966308    3.84430623724863
O         0.19063596448138   -2.56421370609968    3.47335097693969
C         2.76829549513782   -3.48643646239085    1.78903952658812
C         1.87294661420939   -4.65691444091789    2.18033815386293
C         6.24513922704113   -1.12862462725998    2.84386150564052
O         6.31795814648866   -0.13162476454518    3.55944657816321
H         2.10730406606929    2.11079043658421    1.57222490018084
H         2.99684669942388    3.64089035678587    1.02872714535592
H         3.22011990385835    2.82310692392532    2.64551773887474
H         4.97631695638502    2.28684438551041    0.71650662159755
H         3.78751671492607    1.37636775495678   -0.09516666804633
H         3.89086737469035   -0.87891594372136    0.34627453259075
H         5.66042903559972   -0.28332360770054   -0.88676639365826
H         6.56658656850413   -1.23906819143404    0.21061781872266
H         6.48360375877254    0.51940333510376    0.45390773653644
H         4.49831406631372   -4.80838487356151    2.27941895830538
H         3.86714986639252   -1.05540317325641    3.95120535175319
H         2.19289538451619   -1.39482030998119    1.99634537044855
H         1.66999037143246   -1.39484563702353    4.35384060853620
H         1.81587730313616   -3.26787288951829    4.38780687263155
H        -0.03816453387164   -1.81711657064730    2.89507590810333
H         2.76505662293317   -3.35167713806061    0.70018103544015
H         1.97987887233738   -4.96630235838868    3.22434533795237
H         2.26252855194235   -5.53502755765101    1.65179579837254
H         0.81567436319458   -4.43583693719617    2.00583384896836
H         7.13981130592738   -1.74975586078017    2.67930780313616
