37
 energy: -56.177081966657 gnorm: 0.118537066030 xtb: 6.4.1 (79825abcba525fcdf90b791dcacef51065a7a4e7)
C         2.78908636237105    2.60094907189588    1.17928012938590
C         4.02098633326503    1.76247764622277    0.89226549841449
O         3.89922324318985    0.52287130478033    1.59302842387166
C         4.54647292811222   -0.61764840543580    1.00069638401491
C         5.84072270285913   -0.19902039579107    0.29031319377862
C         4.94882976249415   -1.59826271362686    2.12455659600441
O         5.11420204692107   -2.90321863454314    1.53487493397825
C         4.29748634628361   -3.73291822808428    2.38500722006678
O         4.41057134872720   -3.15253707705321    3.69850768442375
C         3.96433220136341   -1.84392386382773    3.28060227149735
C         2.55568290058736   -2.20043740508070    2.74444982476245
C         1.57332465305662   -2.21872693758114    3.91858935315022
O         0.19835381070151   -2.44207676232001    3.63501573988903
C         2.82696027132609   -3.54147073588034    2.00116714832309
C         1.93187830885394   -4.74430766719432    2.27828535901464
C         6.30689767220932   -1.23560271640550    2.74794537126085
O         6.40619733243622   -0.42067029649989    3.66303992577362
H         2.86472234938571    3.61396022967870    0.77179336698263
H         2.67979204228318    2.65503445746927    2.26767697068200
H         2.01063820057748    2.04284976178652    0.65039248441944
H         4.84613009273780    2.30720896932423    1.35823749427161
H         4.21225511853607    1.53983975587378   -0.16258647508595
H         3.97006731921156   -1.06696012416425    0.18354841761452
H         5.66084130576944    0.25102048591400   -0.69103814690526
H         6.49146519464564   -1.03371928745261    0.01057758059836
H         6.42779571094291    0.40258394675554    0.98982674970984
H         4.66804632103476   -4.75583727803917    2.49220203360770
H         3.87772991795410   -1.04187028782185    4.01567309476804
H         2.28363711971468   -1.48568520534275    1.96103174069300
H         1.68618889275824   -1.23352500712217    4.38532890619141
H         1.80603677840073   -2.92256646437095    4.72291866889971
H         0.02409380406025   -2.22667167233437    2.70327546096412
H         2.82692206943024   -3.34893669332878    0.92102178091227
H         0.87874417223530   -4.45930570607782    2.36067927391843
H         2.19043000613284   -5.34156824628751    3.16069374775790
H         1.95751580962778   -5.33957251332272    1.36059581164559
H         7.22450340185791   -1.74832675254895    2.41865243101948
