37
 energy: -56.179353901295 gnorm: 0.130135964742 xtb: 6.4.1 (79825abcba525fcdf90b791dcacef51065a7a4e7)
C         3.58447717566459    2.53789731415214    1.22377340323605
C         4.22628221909660    1.69548995050974    2.31070734274554
O         5.21713208326113    0.92235168764378    1.63027176003655
C         4.66811925906788   -0.33635453910639    1.20036694941507
C         5.35297441366355   -0.72985324925473   -0.11534894299994
C         4.82488061765384   -1.31730189526059    2.38346682996335
O         5.34732532367120   -2.58257903299992    1.93168405760082
C         4.40921340979661   -3.55446162888966    2.43521271594487
O         4.11082228988085   -2.96110133419132    3.71341468343944
C         3.57269636001721   -1.73423183460326    3.17354935959020
C         2.38662086881663   -2.27845570321147    2.33934346384729
C         1.17858691094062   -2.56725777001665    3.23444859110867
O        -0.00418151049728   -2.77042623185658    2.47246079656995
C         3.07839037733047   -3.50677769851209    1.67819978180538
C         2.33674551776396   -4.83863738302902    1.64827329185745
C         5.91028343500637   -0.76047189417656    3.31958932289826
O         5.70817224304364   -0.41597836243191    4.48227955393597
H         4.27241536575685    3.24374865018580    0.74788181071962
H         2.76219311937997    3.16247457202244    1.58878071940994
H         3.06047610326386    1.91663383796465    0.49122095434172
H         3.47085208700176    1.19383763910114    2.92094877865813
H         4.74752354679456    2.45921299745838    2.89713606895172
H         3.59508099127158   -0.33568240792555    0.97577027627256
H         5.16942622792281    0.04722555081504   -0.86394974633538
H         4.75352679840583   -1.57327576296122   -0.47275775565355
H         6.41022921263144   -0.98538938739584   -0.00214436848260
H         4.89500283204714   -4.53151596459294    2.50260909744209
H         3.38001037072947   -1.10055506971563    4.04098515319414
H         2.12311643813654   -1.60766755270713    1.51518803390590
H         1.02597097136565   -1.66133418400071    3.83212561192188
H         1.37310833061841   -3.41911780155079    3.89246573943284
H        -0.51726960568507   -3.52730104658354    2.80228949747412
H         3.34150607944134   -3.25541757054435    0.64312896799382
H         2.30323655483688   -5.08120816451458    2.71464234487043
H         2.98475612267870   -5.56659832104067    1.14590999919487
H         1.32989941221593   -4.76724797687615    1.22599838659617
H         6.92402286644563   -0.69028205748286    2.89447075597389
