37
 energy: -56.169948817891 gnorm: 0.125086047222 xtb: 6.4.1 (79825abcba525fcdf90b791dcacef51065a7a4e7)
C         2.36033656210076    2.15780237072671    1.22343028628557
C         3.65819347018622    1.50008038040816    0.79220123132368
O         3.91223429850890    0.38312705252748    1.64683409501933
C         4.76956970245328   -0.58018314651378    1.00841098496752
C         6.14322485375840    0.00373576010058    0.65191920476042
C         5.06483816098165   -1.64126079406401    2.09168747048425
O         5.14824941969055   -2.96192335203925    1.51995732458794
C         4.24081607416057   -3.81823921854491    2.24206445617010
O         4.39144590289721   -3.30135301190024    3.57812331487676
C         4.05099364797972   -1.94756734056916    3.20717930015532
C         2.63958886058150   -2.17906572467690    2.61287364826433
C         1.53949964282784   -1.91671047244914    3.64483260811982
O         0.20788288316864   -1.87612477777468    3.14885522725079
C         2.76817337075784   -3.56134818065938    1.90775509250608
C         2.00184269154557   -4.66754719641695    2.62458418456052
C         6.39355708254316   -1.32764681840788    2.79924421778897
O         6.55767956812421   -0.53802010907136    3.72710561128235
H         2.41841954548039    3.08836366322767    0.65015904286454
H         2.22586236363370    2.31074418157460    2.29953606791702
H         1.47359439675452    1.58653812852025    0.93270013903670
H         4.41310899223239    2.28982811329916    0.75865409831385
H         3.59962911168285    1.07520192563679   -0.21522746590328
H         4.36353450427970   -0.91915461194852    0.04815633560099
H         6.05059183698423    0.83653197834822   -0.05222151088239
H         6.79102620875433   -0.74947818901047    0.19206902175248
H         6.62498021375230    0.47106109166202    1.51529659581332
H         4.58034331074250   -4.84416170922546    2.07661625262159
H         4.03255778142756   -1.31129024373289    4.09370655308331
H         2.50423705813881   -1.38771733376568    1.86851410734696
H         1.75696654134003   -0.89043702133065    3.96213048629962
H         1.68388188172631   -2.47253950564069    4.57579904860800
H        -0.22467851684922   -1.18591406965492    3.67933205530337
H         2.67211765021721   -3.45162593412544    0.82031879693358
H         0.93107633938077   -4.54150134195453    2.43836321059207
H         2.38910658089899   -4.60267304320638    3.64831841614310
H         2.26978077141636   -5.64471561360897    2.21166446343597
H         7.19167389095487   -2.02617009768248    2.50193153282771
