37
 energy: -56.179114034064 gnorm: 0.115756750619 xtb: 6.4.1 (79825abcba525fcdf90b791dcacef51065a7a4e7)
C         2.83890511925186    2.44953165797327    1.97481675993186
C         3.17435437524960    1.20216821486926    1.17823183862804
O         4.39569579759922    0.64998453503575    1.67415238156403
C         4.77094367338722   -0.60142621648746    1.07104795734446
C         5.97721987925494   -0.55819654917271    0.12341655927828
C         5.08200016280135   -1.58901233375790    2.21755357190533
O         5.30142108466835   -2.93810075286690    1.75951696967277
C         4.36538854235331   -3.75273067524080    2.49325538434774
O         4.23476635422771   -3.08757546978497    3.76424727062887
C         3.89567266864076   -1.81546496250448    3.17011490120242
C         2.59206327357313   -2.17661732561088    2.41577687594195
C         1.41295761589429   -1.97147244386418    3.37054979940370
O         0.24512837416324   -1.80336261141380    2.57760723034768
C         2.96435126172338   -3.59569800922907    1.89419982069262
C         2.10636723958410   -4.77265832721217    2.34521060257784
C         6.39510974884670   -1.07851855001321    2.83368989398250
O         6.56142048494126   -0.11608835556874    3.58031050095693
H         1.88275631432593    2.90871227147095    1.70483434320701
H         3.60539710189781    3.21920498565984    1.83491973400343
H         2.82271880183243    2.33652502903295    3.06300150297606
H         3.18774684720085    1.42285455799534    0.10779148903440
H         2.37534171796733    0.45967670369982    1.27388336585584
H         3.96836270156248   -0.98607470928259    0.43091929122647
H         5.69497196053986   -0.07060892947790   -0.81495385695376
H         6.14293463894767   -1.59617275423319   -0.18249862534617
H         6.81109050414071    0.00708669086531    0.54887678401577
H         4.60000835414379   -4.81838130677910    2.56042005882055
H         3.74193988205932   -1.09690553282399    3.97705833848649
H         2.35466403314573   -1.40014245792913    1.68137105142074
H         1.48765839867504   -1.05440028640122    3.96603736741635
H         1.43795745449182   -2.84079907967004    4.03397792530522
H        -0.40955996551016   -1.64463572327759    3.27838879833287
H         3.12061490110036   -3.51736842494000    0.81104262311927
H         1.11800276574983   -4.72009057738957    1.87886451178299
H         2.00044727606437   -4.77888505426386    3.43651987550104
H         2.58145297398856   -5.72551695479410    2.09320743569198
H         7.30567131129870   -1.62245292289178    2.53648081795334
