37
 energy: -56.167715088043 gnorm: 0.139440275880 xtb: 6.4.1 (79825abcba525fcdf90b791dcacef51065a7a4e7)
C         3.59366346896999    2.83884477374132    0.91085077332133
C         3.10768028168136    1.46094491799476    1.32097464799266
O         4.17608163343694    0.68180675188301    1.86317486184378
C         4.61808974890066   -0.52405445516804    1.21425099919077
C         5.80605098766844   -0.32610318930374    0.26317816037596
C         5.00581373683300   -1.50591072485761    2.34216304890453
O         5.15398075488462   -2.83967423435434    1.81575652956202
C         4.29318006499975   -3.70168198969980    2.58654551066381
O         4.23734390678309   -3.07019962438718    3.88000069468839
C         3.88917197836946   -1.76535596030656    3.36774863322863
C         2.55148084076728   -2.19098823446005    2.71332233534536
C         1.32717528551063   -2.16589541083736    3.63224133575506
O         0.18521781229783   -2.58398543506357    2.89604990265651
C         2.87547315340928   -3.55031326099444    2.02652149142088
C         1.94078770370405   -4.73798687916864    2.22795980520588
C         6.21554725040017   -0.91025476580741    3.08123210902387
O         7.34129315837979   -1.20270959223009    2.68306174415161
H         2.66404338013666    3.40437136240333    0.79276589911141
H         4.10930043548756    2.71987851128363   -0.04802549987156
H         4.18726458199563    3.36926606459027    1.66149682328408
H         2.76573429793353    0.89002128447022    0.45388556028003
H         2.34199338155931    1.57533403322882    2.09525028564195
H         3.84202019708827   -0.96528743409402    0.57794544391565
H         6.59068922737877    0.13309454040089    0.87262450486601
H         5.46133032022600    0.36632097533191   -0.51151950932982
H         6.14526416564552   -1.30040118077960   -0.09956080502666
H         4.77456009434749   -4.66793468522661    2.75916591221405
H         3.68740742208854   -1.00919238908085    4.12842380658225
H         2.20630419434455   -1.44802228996709    1.98704539011479
H         1.15755738873240   -1.22819914038809    4.17368612412033
H         1.38849138674957   -2.88932986694456    4.45039388197831
H         0.00486639297015   -1.95941570982292    2.17335226529134
H         2.83527242031401   -3.39888453975018    0.94059487429714
H         2.31426493050410   -5.27875865535712    3.10270950411976
H         2.17815844865089   -5.46727478733369    1.44437316319644
H         0.85439324494824   -4.65599195718472    2.32883363790507
H         5.95397410853822   -0.37693823287731    4.00884895773131
