37
 energy: -56.176393203305 gnorm: 0.122432324517 xtb: 6.4.1 (79825abcba525fcdf90b791dcacef51065a7a4e7)
C         2.81911135825574    2.29853634819290    1.79995000607392
C         3.60026551951249    1.45211873001823    0.81183834380298
O         4.44627531045607    0.62920537573790    1.61781591577813
C         4.75471266703139   -0.66897759567936    1.07914908852948
C         5.78070141324154   -0.72199926788039   -0.06081227656056
C         5.14134522925393   -1.59339023081682    2.25496102540683
O         5.35187721134837   -2.94496407849165    1.80009095687352
C         4.34332039149126   -3.69054476488639    2.51077613777203
O         4.29995348571722   -3.04889077930969    3.79969562258401
C         3.99637334619652   -1.73918495313663    3.27172536015374
C         2.63607721144530   -2.02502337244148    2.58853797073403
C         1.50887769819300   -2.05668257130593    3.62409812333189
O         0.30213820825373   -2.26960493236472    2.90348183084417
C         2.93726920380173   -3.42023439999100    1.96636394382693
C         1.94146883769886   -4.56907730127852    2.08179584584526
C         6.33011961331657   -1.00994929882431    3.03655963287526
O         6.02123467060706   -0.05151805354925    3.74180636223394
H         2.20482892113243    3.00414174337962    1.23185143800940
H         3.51051825417744    2.78364803098407    2.49715967321330
H         2.16768580089501    1.62798067854417    2.36843778746785
H         4.29410176142060    2.05909519792124    0.22456057771706
H         3.03670153534940    0.78350078271783    0.15289241435696
H         3.80462146022586   -0.99563456039786    0.64042690053132
H         5.51948213769498   -0.06139965594365   -0.89346898723464
H         5.87699779862443   -1.80051222622732   -0.22198561616605
H         6.79771842667749   -0.37308056570395    0.13877186916426
H         4.64462874613086   -4.74144017538238    2.51173244053825
H         4.00620905128471   -0.97473280396770    4.05059323718904
H         2.31952307555655   -1.42000321621697    1.73275319016781
H         1.47163504975491   -1.06456884490101    4.08835056669427
H         1.78531176990998   -2.78490391033984    4.39206202401599
H        -0.40918595949438   -2.12202722539372    3.54934915590641
H         3.02536474284101   -3.31095649726674    0.87820913330464
H         1.02792391771137   -4.15790543348475    1.64193249974480
H         1.85317149994337   -4.94171396381370    3.10919997452359
H         2.24921143113314   -5.42807387598866    1.47799869235815
H         7.26799224995175   -1.58577143168520    2.99025816113584
