37
 energy: -56.183770714714 gnorm: 0.122436616810 xtb: 6.4.1 (79825abcba525fcdf90b791dcacef51065a7a4e7)
C         4.14253747266731    2.90256308089550    2.01907913204784
C         3.94311701989438    1.84977804744328    0.94443294753335
O         4.11248375472771    0.58865559099844    1.59512785484391
C         4.34314239154774   -0.66120390663708    0.92042611062423
C         5.42280571863147   -0.48637375804431   -0.15602066661207
C         4.79813460485520   -1.53062049593785    2.11359587703412
O         5.19891309925112   -2.84235746113577    1.67008136183290
C         4.38760236516444   -3.68726428271439    2.51035406577614
O         4.38027752010188   -2.99142435070227    3.77157058441476
C         3.74294515865501   -1.83237768097212    3.19134551266843
C         2.42053986602720   -2.36487994487947    2.58592022235326
C         1.23201259997422   -2.32903347543477    3.55032876968857
O         0.06756789715452   -2.72888453136862    2.83967299188676
C         2.93810764814609   -3.71827877736829    2.01594992119731
C         2.29301568223591   -4.97487628404243    2.59005965171637
C         5.99890305270809   -0.87011537935941    2.81099992654009
O         5.90983430822493   -0.21315889185701    3.84630096702990
H         3.21483110508281    3.07006349921023    2.57519276666933
H         4.42629266255782    3.84221904585571    1.53327277111654
H         4.92844330720292    2.63520794161665    2.73185663517920
H         4.64390735422236    1.98998049588742    0.11741389336039
H         2.98706539678481    1.79526797567143    0.41352993491944
H         3.39994129332048   -1.03160554063653    0.50206076561147
H         4.94400115418048   -0.07217964508150   -1.04884427238355
H         5.85115400447197   -1.43164232744486   -0.50448173031277
H         6.16111986550961    0.21238322784390    0.24713266417113
H         4.93626023154158   -4.63069879924474    2.57418722520514
H         3.63255272792918   -1.01344437423113    3.90428362793942
H         2.14172544441811   -1.58728045711072    1.86743217619299
H         1.07220294349275   -1.34240042399477    4.00002098020161
H         1.48382700460058   -3.12524394261130    4.25681944099736
H        -0.16791298394853   -2.05592443317380    2.17893150505694
H         2.90916639802813   -3.73229395458277    0.91925062157295
H         2.35406077780665   -5.00756055007569    3.68198988030229
H         2.74074691724965   -5.88759327100611    2.17933079666286
H         1.24826955705161   -5.09686895374723    2.28877084144928
H         6.93696080043522   -1.15451880881369    2.30852364886490
