37
 energy: -56.183848261119 gnorm: 0.112790209910 xtb: 6.4.1 (79825abcba525fcdf90b791dcacef51065a7a4e7)
C         3.77167241936457    3.04098677462387    1.50446573534081
C         3.57117363676984    1.68324492483370    0.85691143341794
O         4.31733782282473    0.72994178656622    1.61649746650340
C         4.43150665300939   -0.54440767021735    0.95803445740519
C         5.46943702323245   -0.57176217898421   -0.17197810923101
C         4.86940102340845   -1.52745110469896    2.06638065549143
O         5.20183427536555   -2.86515145410167    1.64444668091074
C         4.37078581809232   -3.67637989095930    2.49850624495036
O         4.40119777393331   -2.97442335618527    3.75598233039559
C         3.83300480705552   -1.78059559289408    3.17445428343307
C         2.44590623596525   -2.26503125673707    2.68441978726059
C         1.38678190941612   -2.38189092416436    3.78376747042910
O         0.12843408471037   -2.86990937438883    3.33740136722136
C         2.91134178332534   -3.60340919204481    2.03901666592684
C         2.33417883228850   -4.91563754598527    2.55836489964233
C         6.08012599200429   -0.94105072854495    2.81120540036664
O         6.02220409873435   -0.34358385675351    3.88407617122768
H         4.66738741849021    3.53582160124611    1.11614756138440
H         3.94088826594377    3.04874563992261    2.58649344173301
H         2.94806415498512    3.69884262152090    1.21108265436770
H         3.95954598492417    1.64346467250526   -0.16402381856225
H         2.52744210818689    1.38653235408731    0.71045253599296
H         3.45228121994977   -0.77653471268324    0.52318987024656
H         5.09216081016988    0.10673296173426   -0.94350358712512
H         5.67202954042662   -1.59127932976825   -0.51546185297795
H         6.45275053745720   -0.14784643317242    0.05003917568819
H         4.77181938960342   -4.69260235036509    2.53891414318850
H         3.78283897555779   -0.94928394445109    3.87980762025862
H         2.00532972935462   -1.54998523510817    1.98211997251281
H         1.29204690267280   -1.37131323113767    4.19724659865156
H         1.61597281524523   -3.06715803400585    4.60496852612893
H        -0.00442910256314   -2.52245938021895    2.43933025338995
H         2.81115164319300   -3.57642095627827    0.94676351852719
H         1.25880662908955   -4.84105812599493    2.74576532984728
H         2.85516025084012   -5.17124622923047    3.48866394372112
H         2.63979232053991   -5.74221006803570    1.90988214257506
H         7.05905597116192   -1.15955290475778    2.35593302570929
