37
 energy: -56.175296975361 gnorm: 0.124560580888 xtb: 6.4.1 (79825abcba525fcdf90b791dcacef51065a7a4e7)
C         3.05585578742816    2.58914263938013    1.73637763791637
C         3.19171969469889    1.08250545863307    1.85710320793772
O         4.45915288538179    0.70957031593929    1.31207910246959
C         4.65727990202861   -0.65577213164751    0.90322673858321
C         5.90148230620766   -0.75070688913193    0.00996086788989
C         5.04266615622909   -1.62790484549323    2.04032505494534
O         5.27052397787072   -2.99726363375539    1.65184124323554
C         4.39566494111594   -3.72785128507351    2.53445905504561
O         4.43390628511872   -3.01917584485546    3.78794646565360
C         3.99916011268387   -1.79420332396648    3.15812036308567
C         2.63430180980997   -2.15017919494093    2.51835699732180
C         1.44946494760717   -2.04036852060106    3.48172041981930
O         0.20014052282886   -2.40067813075750    2.90708190286071
C         2.98395607346464   -3.56233673686404    1.96339400529035
C         1.99465579983772   -4.57933360902391    2.52177134344849
C         6.27529467579288   -0.95992761880696    2.67192428363025
O         6.37170706543322    0.20179925105421    3.06239658508730
H         3.10004779912906    2.98876570436895    0.71838631243014
H         3.86207938707487    3.05055506672859    2.31653299521001
H         2.09204219947249    2.96608383399921    2.09156381685442
H         2.41286629263670    0.65190890704182    1.22251805145762
H         3.03253733963419    0.82534817719392    2.90943165745325
H         3.75119176425505   -1.00332237217388    0.39325777695196
H         5.72456684107214   -0.35371805088976   -0.99455162241796
H         6.13542609571681   -1.81808237071360   -0.05652165866224
H         6.64645770190323   -0.07805606373893    0.44407403282255
H         4.87321532206978   -4.68916246017304    2.74181205429823
H         3.94737730731432   -0.98220181518789    3.88550683383479
H         2.32607818757575   -1.52699482047560    1.67262480778038
H         1.23359864491617   -1.03136563305226    3.85120911521333
H         1.53022356282973   -2.67161529218058    4.37138115283928
H        -0.09914205825148   -1.56038094183780    2.52077059928670
H         2.99946486322477   -3.55794454894994    0.86634179164332
H         0.98815152638998   -4.17891849441758    2.36774772941412
H         2.03106495308516   -4.70084050675464    3.61086463480753
H         2.14244950379453   -5.57215614752771    2.08632668162711
H         7.09396323360479   -1.68358801340789    2.81127084700397
