37
 energy: -56.176963063988 gnorm: 0.127062910870 xtb: 6.4.1 (79825abcba525fcdf90b791dcacef51065a7a4e7)
C         2.98711172206288    2.11573159767270    2.24015093705365
C         4.06715866820718    1.45073748596163    1.40692186417374
O         3.57695729556719    0.27839571337603    0.75282998820965
C         4.58662102200947   -0.73175396044988    0.57746929998529
C         5.95226659429195   -0.30968804604015    0.01903517531886
C         4.92850367037207   -1.52909181284953    1.85572036450149
O         5.14023269328945   -2.91764581126499    1.53157378240960
C         4.27354685645649   -3.60114673441733    2.45884559279508
O         4.38113712222575   -2.81273512076406    3.65957263797744
C         3.86993069541351   -1.65427623903221    2.96467417762012
C         2.46793129624053   -2.14013020981690    2.52060457554800
C         1.55498700181587   -1.96229692014834    3.73669418241434
O         0.17849167199541   -2.21980178505905    3.49216233863951
C         2.80295453868120   -3.57963088982547    2.03067786567281
C         2.10266383855168   -4.83403499885268    2.54140890198575
C         6.15686762117082   -1.05441040540599    2.64962452757285
O         6.26168800566228   -0.09772858564900    3.41457281244830
H         3.35158479928224    3.03053678151439    2.71790476475711
H         2.68737689032689    1.37235436790691    2.98649367678204
H         2.07257991736527    2.33983551653928    1.68284713206446
H         4.93842192280806    1.28306086088925    2.04528635592457
H         4.41939927772168    2.16402235026582    0.65458196971936
H         4.10709890391621   -1.51646671426965   -0.01930510067068
H         5.70682974277344    0.21036891931043   -0.91222529889735
H         6.43352990481178   -1.21712912347364   -0.35961553106536
H         6.63470402462976    0.34380081447075    0.56961047783975
H         4.62779871858109   -4.62966519235407    2.56758480993426
H         3.91423780906539   -0.78455513820452    3.62250477992833
H         2.12676814531960   -1.40509274989407    1.78443125681021
H         1.72607034544602   -0.98977182183638    4.21222800654125
H         1.88565326470914   -2.73192147859350    4.44013468261133
H        -0.15454805678968   -1.53705526742935    2.88565794096521
H         2.74490978856905   -3.68923533671450    0.94053977643826
H         2.81281978057291   -5.57910338547293    2.91243184987696
H         1.45994347235960   -5.34093094808563    1.81190168637165
H         1.60663247933984   -4.48995973201217    3.45394204145844
H         7.00178940406148   -1.74551358195952    2.50196400288637
