37
 energy: -56.171530191108 gnorm: 0.131010561648 xtb: 6.4.1 (79825abcba525fcdf90b791dcacef51065a7a4e7)
C         4.13413557325008    3.21793276129818    0.80457028700522
C         3.51053274137739    1.92431831924076    1.29515207950848
O         4.36537280771629    0.92342096660458    1.85190322578705
C         4.54019147633044   -0.35876191471438    1.22260179349024
C         5.72811598324690   -0.32377183315493    0.25173238374771
C         4.81797935529937   -1.50725550894705    2.21776709729277
O         5.12525420357302   -2.79803304418748    1.65433284188361
C         4.29721740193829   -3.75798306940587    2.34062864764734
O         4.21889011912884   -3.19711984697601    3.66509506571320
C         3.75049781885126   -1.89357355271974    3.25568248282335
C         2.43530705317592   -2.39453156470071    2.60902281256666
C         1.36987539315022   -2.67812161614361    3.67128364319719
O         0.09091130195584   -2.83752209065079    3.07154507357988
C         2.87121688471534   -3.64655570283355    1.79241442208864
C         2.14734914046920   -4.92279772553240    2.20714901508922
C         6.08543094981825   -1.13378657694471    3.00426059278743
O         6.15234834765483   -0.32392170550298    3.92676500842049
H         5.03911213871464    3.39460777296885    1.39428312850001
H         3.47507603534907    4.05082719079493    1.07178848476448
H         4.29720459499734    3.24872142782056   -0.27692824950964
H         2.83414296588751    1.49430077979324    0.55197904909118
H         2.87164575897992    2.17912278919089    2.14706885504650
H         3.63910410294825   -0.65306711612742    0.67189190818957
H         5.64424622240985    0.51458046217142   -0.44689190953935
H         5.72435460429924   -1.20508959568277   -0.39765574242444
H         6.67020776077782   -0.32487297877252    0.80703737127611
H         4.76553057718146   -4.74349360134141    2.27265353652177
H         3.48078912443235   -1.27687157641093    4.11478378808231
H         2.08381003007003   -1.55311153530005    2.00314677863227
H         1.30627753387968   -1.84279555636429    4.37796087683712
H         1.69940794666039   -3.51265472538151    4.29694608413237
H        -0.56314182611991   -3.22378305587028    3.67811150076420
H         2.75947466582786   -3.55001038655895    0.70522717664639
H         2.29786554701850   -5.12875319961369    3.27111967280667
H         2.54067821181201   -5.66301577375837    1.50033698302679
H         1.10362626855913   -4.73212347144111    1.93987100131789
H         6.96541946639700   -1.59662969674326    2.53021773939830
