37
 energy: -56.179701173702 gnorm: 0.120629836902 xtb: 6.4.1 (79825abcba525fcdf90b791dcacef51065a7a4e7)
C         2.86099650607057    2.50964923799962    1.83659083209002
C         3.87398743380063    1.55150348237999    1.23759554639921
O         3.36466294856888    0.22204941769553    1.11245859281538
C         4.36390852029605   -0.79644851295268    0.92605894699891
C         5.62619782799907   -0.45871920783150    0.12135976967033
C         4.88042821834927   -1.61312990904752    2.13137886585651
O         5.29826003104665   -2.91640295406738    1.67874396472841
C         4.43845527064181   -3.83246540358982    2.38565005997407
O         4.41396209054824   -3.16357532482680    3.66115001074829
C         3.78322606260923   -1.96944536456334    3.14883314369307
C         2.52045051731758   -2.41641903820814    2.37135857985909
C         1.37117751523851   -2.28496757399051    3.37428329973840
O         1.46882872062101   -0.95315160208401    3.86169938461672
C         3.01098360976476   -3.79203594929684    1.83146379041272
C         2.26179496675533   -4.98839174635299    2.40785959532794
C         5.99299756879273   -0.95602305528570    2.96497607224324
O         5.99089865807036    0.23415978070983    3.27292692059156
H         3.23816103023008    3.53181067281791    1.73223187834766
H         2.87030343300828    2.34651870534972    2.91954049422895
H         1.86567050641491    2.27174297702952    1.44941479367812
H         4.79871320143767    1.50979868936518    1.81885908396581
H         4.22438376540390    1.91194685717326    0.26488436391015
H         3.83247938503697   -1.51166281996618    0.28738310616351
H         5.30953502184645   -0.29784802498410   -0.91391299362441
H         6.30207374247033   -1.31972352695866    0.13877673024676
H         6.08846034565243    0.47564163526870    0.45179113880182
H         4.97060582228703   -4.77969583749740    2.50705481046237
H         3.65970635532809   -1.18142076664564    3.89373524798014
H         2.15158716923908   -1.77287534286276    1.56611645996964
H         1.63965861045131   -2.90113959589749    4.23999511309918
H         0.35050255829305   -2.47974465333643    3.03255943888535
H         1.25341386257587   -0.34509978224391    3.13453002529424
H         3.05099008000795   -3.93701823452052    0.74465055657733
H         2.45837761082308   -5.20860667945552    3.46140932875001
H         2.41698074975480   -5.88468668946784    1.79566150439344
H         1.17758300743827   -4.84130004540040    2.40815762228228
H         6.75201441029389   -1.61528874507517    3.41506743710806
