37
 energy: -56.181614820752 gnorm: 0.124040620435 xtb: 6.4.1 (79825abcba525fcdf90b791dcacef51065a7a4e7)
C         2.62169108197216    2.46145516699430    1.57449677395897
C         3.36907010214513    1.36226160414686    0.84224860973794
O         4.13976311831416    0.54731277595742    1.72791755808203
C         4.78469719532049   -0.56827379775251    1.08752609709989
C         6.04820666852034   -0.10414033489296    0.35057286074600
C         5.06776366692650   -1.63378514959427    2.16970727837773
O         5.18309900237486   -2.94035602873221    1.57175018275754
C         4.35026199022954   -3.78833513598750    2.38751044380308
O         4.39847769182232   -3.18348060779135    3.69393312397866
C         3.96547460646274   -1.89301892248115    3.21075632145076
C         2.60420334333228   -2.21457608750199    2.54562795891036
C         1.51950788654395   -2.00662749050668    3.60589162279037
O         0.28182471046558   -1.78537172905988    2.94254388879294
C         2.90217640187696   -3.60945382539792    1.92116089523916
C         1.94169569072948   -4.70879137669778    2.36129346277875
C         6.35396519644143   -1.28057411974160    2.93482938965155
O         6.41238051534027   -0.60877924188567    3.96276547281577
H         2.00179658566332    3.06415266073262    0.90334521676103
H         3.31709799286433    3.03791126434868    2.19383977745110
H         1.92398106139048    1.96748980390304    2.25741511990189
H         4.07041033164537    1.77903155790214    0.11482230805418
H         2.67589241740150    0.70173786341651    0.31113925370632
H         4.18418786278040   -0.95863440868942    0.25754876808209
H         5.62499672189551    0.51080204922280   -0.44985438303484
H         6.63736068686638   -0.94061396661764   -0.03884906965150
H         6.67626809541413    0.47831126150786    1.03041893910059
H         4.77711187652743   -4.79255313301292    2.45469825803429
H         4.18799204874849   -1.27699485604669    4.08375079278104
H         2.42512354954276   -1.35464282664375    1.89212299888564
H         1.69301423289796   -1.21967806114782    4.34873288156401
H         1.37285233606891   -2.92859841168611    4.17593762269238
H         0.42686881081203   -1.36417945627018    2.07856175301876
H         2.98381636303292   -3.48924617978531    0.83365529968015
H         0.92080444827896   -4.32782612643576    2.46005043792878
H         2.28929042982060   -5.18231252618567    3.28712788104710
H         1.86231657325548   -5.54066830293658    1.65501351742694
H         7.21048005830735   -1.80928403544149    2.48742782266210
