37
 energy: -56.176499044175 gnorm: 0.120698494961 xtb: 6.4.1 (79825abcba525fcdf90b791dcacef51065a7a4e7)
C         2.69057406958328    2.21473516176483    1.75773226522910
C         3.90797683577440    1.31169336048588    1.68400796746853
O         3.58167128051006    0.08081327649594    1.03518002097389
C         4.67613033596740   -0.80847341440773    0.74899276188724
C         5.82911724638628   -0.17295130647633   -0.03949246692063
C         5.05722629036011   -1.60879332759453    2.01422440314836
O         5.16228317209907   -2.95686945445024    1.51458831895681
C         4.26493439584875   -3.72257949035231    2.34320413803695
O         4.35206788478733   -3.07635356600313    3.62761598139099
C         4.04238293194254   -1.74456524870634    3.16212917737087
C         2.59163760015687   -2.03035620782952    2.70113491953620
C         1.62591908842595   -2.09613628541368    3.88731644950145
O         0.27055296347175   -2.10802763194763    3.45873129970862
C         2.79456058557613   -3.42317623169224    2.03532292578197
C         1.90375435435615   -4.57597091462672    2.48511355085612
C         6.43673660047532   -1.14273810793396    2.50841880885058
O         6.50987101561311   -0.13446842163081    3.20800219402142
H         3.04073177121439    3.24699615358052    1.85664989542397
H         1.98543149176760    2.00753040279353    2.56971643488721
H         2.04265939746257    2.03379773854114    0.89480309873396
H         4.42255025879182    1.22616565372734    2.64454091191081
H         4.67673015426485    1.79428069813780    1.07164217890623
H         4.16894171803273   -1.55775314400612    0.12996542120233
H         5.40043578909004    0.50674505168317   -0.78258709720383
H         6.44156740933420   -0.85543207077110   -0.63745971706599
H         6.40299977481142    0.45149770003499    0.65088713049695
H         4.62483224786743   -4.75371173384246    2.29412617453963
H         4.27287866405624   -1.00436989857322    3.93030986402753
H         2.22743811228613   -1.40748989139845    1.87771534458071
H         1.79901753233374   -1.32053112849025    4.64208830859313
H         1.84928371149910   -2.95420782335000    4.52787257509465
H         0.02907094814018   -1.27142364649773    3.02665947758949
H         2.55366960309554   -3.32437818255030    0.96949279770099
H         2.09878188575965   -4.62256640847854    3.56070618551101
H         2.34345299863007   -5.47452007688616    2.03623911474425
H         0.85207328895675   -4.34032262421660    2.29646454442771
H         7.30793654291839   -1.68334978469913    2.10583996395904
