37
 energy: -56.171978064855 gnorm: 0.128277169698 xtb: 6.4.1 (79825abcba525fcdf90b791dcacef51065a7a4e7)
C         4.45193224228775    2.80098062506809    2.14306691703442
C         3.69473357178382    1.65087939639639    1.50517458525710
O         4.64010438512374    0.79101104913670    0.86531576375365
C         4.26706063353759   -0.59668304596325    0.78969684791526
C         4.94107420184314   -1.16853883102845   -0.46476040735007
C         4.79784030305118   -1.31329917350409    2.05116102394254
O         5.31939880346209   -2.65071806776488    1.91974539900034
C         4.51384727333134   -3.51625336973692    2.74441886462882
O         4.27962221825522   -2.62936133298969    3.85503813779525
C         3.65724336088796   -1.61332617747088    3.03860682366406
C         2.43835980434661   -2.33115911568992    2.40781905686213
C         1.29963773609015   -2.33821635591663    3.43116081239249
O         0.04907254867534   -2.85225659619755    2.99219225519545
C         3.14172564508307   -3.68201332902149    2.08393547118228
C         2.51546887517699   -5.01136978572343    2.49062571052397
C         5.87965321439356   -0.45722936883090    2.73035902992580
O         5.73119309501686    0.16902940969589    3.77780018796112
H         4.95426801368765    3.25898732893915    1.28525195678189
H         5.17893723232231    2.45659255571937    2.88626189035198
H         3.76942957709271    3.44041459047563    2.71095144905860
H         3.02417779115325    2.09416917124121    0.76451712374967
H         3.03728177955278    1.19577118803291    2.25317040165165
H         3.19261904280789   -0.73501325276184    0.62148447565918
H         4.78109385315194   -0.47888281138484   -1.29946123216313
H         4.45695847030844   -2.12879339421342   -0.66965846047961
H         6.01386371039199   -1.27707967764753   -0.28243293166089
H         5.04123892231274   -4.44272337230862    2.98665896576820
H         3.28440672346621   -0.72468330872393    3.55088199325322
H         2.00190318976428   -1.90736304737603    1.49758493548022
H         1.05722436421634   -1.36110429571535    3.86439843581695
H         1.45092808448757   -2.93461131465934    4.33554735465697
H         0.12763394768767   -3.81377743352801    2.87297963201877
H         3.31896400345353   -3.68721466407040    1.00118758793175
H         1.80142731511238   -5.39469459372586    1.75556573205106
H         2.00895446437165   -5.07206503864960    3.46117866378142
H         3.22703669984948   -5.83581894918142    2.38523845775260
H         6.90809570876132   -0.71529079423025    2.43197922681048
