37
 energy: -56.173232372065 gnorm: 0.136428119101 xtb: 6.4.1 (79825abcba525fcdf90b791dcacef51065a7a4e7)
C         3.81904750052687    2.94143674462477    1.75259336369689
C         3.44401801767641    1.56115714157692    1.24547367870032
O         4.57563486867946    0.72142738370390    1.48383485631323
C         4.48217300659606   -0.57778177476503    0.87236526138848
C         5.55728930304547   -0.64688775005785   -0.22048672561593
C         4.81429927497858   -1.46939366034146    2.08944274251632
O         5.08805157682540   -2.83424948493569    1.71499561941829
C         4.33957747442573   -3.70501802044561    2.58660306061558
O         4.34222336399563   -2.88570718034964    3.77135481416008
C         3.72835350175298   -1.73795423522815    3.14520001936399
C         2.42253793458516   -2.28750179304592    2.51934269812583
C         1.37071831487517   -2.28755556258301    3.63183600934567
O         0.11823020889248   -2.89163094560186    3.33652187348643
C         2.89989197622544   -3.69772507875428    2.06345415997462
C         2.30520942755996   -5.00826581691745    2.56705971825603
C         6.10028852263573   -0.89910508871193    2.71031862547837
O         6.16155432685014    0.13865714285146    3.36657265810862
H         4.82547414754223    3.22577539245952    1.42977018006505
H         3.84632053678085    3.04782205557724    2.84227979033652
H         3.08470610128554    3.66446868893395    1.38497122280988
H         3.34890726691507    1.54927249784283    0.15664998253494
H         2.51626534087195    1.11531392955707    1.61878704043391
H         3.45546242804433   -0.67382793703484    0.50021507348435
H         5.24055864485850   -0.19353549450822   -1.16499611503079
H         5.62704778275154   -1.72836783589603   -0.37532413720712
H         6.54176048889348   -0.24748877783604    0.03874030511243
H         4.94696975135104   -4.61009785756956    2.67070966910318
H         3.62531838958364   -0.90996628903005    3.84871884150325
H         2.25041702163441   -1.61567301771002    1.67220398377176
H         1.18948651801916   -1.25728082405736    3.95878553297924
H         1.83423654712043   -2.80131564462926    4.47900311074401
H        -0.32753870518849   -2.36192019143311    2.65417119851477
H         2.96254582426022   -3.68261621820285    0.96817812336925
H         1.61379373091728   -5.40926590454455    1.81989865579675
H         1.79723724652378   -4.91071182248405    3.53383850902134
H         3.13678557257832   -5.70900682810418    2.68786856383061
H         7.00187843449660   -1.52227615991334    2.60025730190219
