37
 energy: -56.182820862647 gnorm: 0.122103785943 xtb: 6.4.1 (79825abcba525fcdf90b791dcacef51065a7a4e7)
C         2.94917453035582    2.50947932960082    1.50817501876707
C         3.95292235547118    1.41238396184822    1.81126134078624
O         3.46854101447309    0.22350993386683    1.18319124022961
C         4.29415981998041   -0.87290857901689    0.75099381567833
C         5.36428404456486   -0.33078053554105   -0.20603672870749
C         4.91460809386894   -1.55939169276903    1.98806376145460
O         5.39385464214481   -2.89968744155730    1.76022073065488
C         4.51652653326358   -3.64379896364116    2.62898093608765
O         4.55711648110831   -2.85631081006029    3.83443887238587
C         3.99113788989424   -1.68219570866325    3.21205248772918
C         2.65104685207505   -2.20746741562948    2.64012604657070
C         1.46835843841762   -2.03608069055602    3.59712164804283
O         0.21458029615638   -2.49978037185334    3.11352373884683
C         3.06696046454972   -3.62014808676681    2.13437893146692
C         2.32744936654308   -4.81516504236625    2.72585228975595
C         6.22211789609951   -0.90068218083231    2.45817456135641
O         6.29983064235342   -0.03822204870910    3.33081226090100
H         2.05424780975283    2.25409062642071    2.08423113042976
H         2.77838851565922    2.51060238257378    0.42636679378738
H         3.37838257227219    3.43485504283197    1.90395117527625
H         4.16016779865230    1.33194488354802    2.88144973986968
H         4.85259294393793    1.66104982731983    1.23887844480293
H         3.66231692063766   -1.55644385613430    0.17184849208261
H         4.87480826317472    0.42542842354181   -0.82773282204838
H         5.72751865795389   -1.12814420975620   -0.86232311696632
H         6.21546274255618   -0.00098324931850    0.39615118469749
H         4.88705818144602   -4.66805908609670    2.72260953345054
H         4.02660385137676   -0.76622207572957    3.80438134737724
H         2.46414530983240   -1.66844231361783    1.70570469040017
H         1.33621298358397   -0.97425155832218    3.83432085208392
H         1.67805431516250   -2.58385193323581    4.52041194415219
H        -0.20847378099789   -1.82060688678083    2.56156859960660
H         3.09034031997836   -3.69562806860689    1.04005743812895
H         1.26441533891443   -4.82666571854389    2.46713858804134
H         2.42135537259236   -4.81481248028288    3.81827862053195
H         2.82874830813314   -5.71729048890034    2.36250579282365
H         7.12512484991026   -1.35506428926788    2.02064125806222
