37
 energy: -56.169095521963 gnorm: 0.117275759086 xtb: 6.4.1 (79825abcba525fcdf90b791dcacef51065a7a4e7)
C         5.67782063780523    3.03054668650378    0.96250474034898
C         4.51010057413369    2.13881810568307    1.34229319613324
O         4.95145722596305    0.78078629428877    1.40122320471896
C         3.93964461414157   -0.24196331036397    1.42938691293954
C         3.78344937396073   -0.89039340465220    0.04731681994804
C         4.52863104488362   -1.19854970310020    2.48985612440205
O         5.17298110891132   -2.27728839074907    1.78337297811291
C         4.66086028945245   -3.46531426900752    2.41935861991815
O         4.32879432612306   -3.04871533755334    3.75767530658922
C         3.47686645818681   -1.97620311255634    3.29922204675624
C         2.38688190183700   -2.68962627273136    2.46147773104514
C         1.10409256849794   -2.89188234412345    3.27234773152310
O         0.03518323797172   -3.44678178798188    2.51712358458990
C         3.25949518965753   -3.87654950100895    1.95730461992097
C         2.92187352702851   -5.25911868457978    2.50438520330845
C         5.38867995744965   -0.19385103645861    3.27431837596702
O         4.99220236806311    0.55282466260515    4.16687332960962
H         6.21810216528991    2.52352976532930    0.15690708326579
H         6.39027785351098    3.24193638517924    1.76699046101356
H         5.38186780448549    4.04247815082039    0.66995533335751
H         3.74849703400624    2.16883167958200    0.55884978372105
H         3.90219306513589    2.37408355479104    2.22204469660082
H         2.93997374442051    0.06756571869063    1.75604463671919
H         4.21046561892946   -0.16381213859384   -0.65102506031444
H         2.71146141750761   -0.97670357219505   -0.15721299339083
H         4.15157321948362   -1.90370970317692   -0.13592252402142
H         5.45279934200990   -4.21535735986509    2.49309319755146
H         3.07865704619311   -1.42576060798702    4.15336575174526
H         2.04419035627566   -2.14418927647480    1.57621808766722
H         0.66049959880264   -1.98410912290464    3.69705955307440
H         1.14669084328281   -3.52204855316507    4.16541362552984
H         0.37284652386238   -4.14014261959954    1.92539718720670
H         3.24399644951602   -3.93164957584681    0.86162799934731
H         1.84819989410797   -5.45715819223811    2.57588149107587
H         3.31771452769731   -5.49400800443931    3.49954886342857
H         3.38057776500882   -5.95065855316450    1.79128303933449
H         6.47130490559948   -0.29141454882553    3.09620398649264
