37
 energy: -56.178713048550 gnorm: 0.119882637694 xtb: 6.4.1 (79825abcba525fcdf90b791dcacef51065a7a4e7)
C         3.67421112911475    3.14524911607883    1.36576283327521
C         3.62731772132160    1.76236564464669    0.74252646234386
O         4.31433469880312    0.81683800087383    1.56502506387469
C         4.40125482487647   -0.53462035255117    1.07863036427265
C         5.42026612962456   -0.62620424357909   -0.06513730722348
C         4.86235643875133   -1.45568017030310    2.22997362649886
O         5.10373355165314   -2.72300222597879    1.58684510283163
C         4.41276896974197   -3.68439218158047    2.40930978861115
O         4.43217635612758   -3.11500247705690    3.73231118303138
C         3.84414256572170   -1.86603454841988    3.30741328387132
C         2.51251070170185   -2.32689456123192    2.66459229157261
C         1.47360464807622   -2.37457900679035    3.78814304420565
O         0.20627596275149   -2.80927283579549    3.31299754246588
C         2.92802928798032   -3.68787352112374    2.03252304233575
C         2.19168992898276   -4.93081405737685    2.52005365075588
C         6.13338994512524   -0.86885343719442    2.86604945409361
O         6.19452289168182   -0.42714947994707    4.01170807472889
H         4.63157386492160    3.67240553427316    1.30642843845035
H         3.46145771051836    3.02691894965031    2.43356998558434
H         2.86995481738122    3.73085417216033    0.91033224249645
H         4.03310468558440    1.62809576421248   -0.26347198454213
H         2.60738367514351    1.43516175518150    0.51551056609220
H         3.43102541234152   -0.87744117701614    0.70049810311649
H         5.10307420674216   -0.14612826265329   -0.99619095430974
H         5.66908424976809   -1.63995913694613   -0.39503212588629
H         6.35520898677927   -0.11222464027265    0.17488046104266
H         4.90999795104383   -4.63125641712024    2.18263761504686
H         3.71129564378331   -1.15939329451584    4.12846677514458
H         2.16584780254289   -1.56316751476487    1.96090958866656
H         1.35516507845189   -1.34472144903646    4.14391329922490
H         1.67558479497464   -3.06756083252786    4.61001339791591
H         0.16015582592879   -2.56089446121473    2.37433521305318
H         2.79635017032645   -3.70013872052676    0.94335200266966
H         1.28734372999585   -4.65685568941157    3.07160705229749
H         2.76486547514644   -5.39569831466319    3.33095819021151
H         2.00791786225039   -5.75997906866645    1.83022408110699
H         7.06489360156625   -0.98422075878848    2.28958492111575
