37
 energy: -56.178720490019 gnorm: 0.122622669072 xtb: 6.4.1 (79825abcba525fcdf90b791dcacef51065a7a4e7)
C         3.27286177497184    2.48152768782964    0.70881301275806
C         3.54353800552574    1.76657802499857    2.01975565926282
O         4.75210467422080    1.02089392762170    2.18050591879885
C         4.68665311161772   -0.21030998179210    1.43859781294938
C         5.82307180888859   -0.23094095465696    0.40752891202171
C         4.88406848098340   -1.43561263431454    2.35849879059203
O         5.05864251865144   -2.56889245464768    1.48489523755769
C         4.33872291751599   -3.63714170176749    2.13197342093795
O         4.32548798436176   -3.30063463133910    3.53250967530514
C         3.79313751929933   -1.97873714043791    3.29706783297713
C         2.49747411675877   -2.28268639362310    2.50477660053293
C         1.37035043615156   -2.56886589437375    3.50059756259594
O         0.07268908862005   -2.36776688338089    2.95609946083322
C         2.87380374825868   -3.55612294515617    1.69165525850387
C         2.12815201967155   -4.87917804443296    1.82697570450503
C         6.19311124427962   -1.13783156330697    3.10831060590077
O         6.35237289809752   -0.32311979322828    4.01509269969714
H         4.24637852677089    2.64392928664827    0.23568647150832
H         2.83406737574723    3.48214697030630    0.78430265768738
H         2.60440466058489    1.98947653893967   -0.00408899497253
H         2.73363197888434    1.14785082919355    2.41466479234997
H         3.66849082993635    2.55257585571738    2.77172525194436
H         3.74287864124590   -0.30076534775743    0.88817721992229
H         5.51688403533939    0.51777471023296   -0.32977595802536
H         5.81883382626004   -1.24740421487198    0.00105071132463
H         6.83227942879781   -0.06469933663741    0.79452428610670
H         4.77143022563607   -4.62777669502207    1.96895345529472
H         3.69132889692737   -1.44649037701458    4.24441538844670
H         2.32670408657162   -1.46841804300331    1.79313893909511
H         1.34892450629204   -1.84848021912117    4.32630477554203
H         1.55934071411391   -3.54653779909730    3.95329060461937
H        -0.19004116110194   -3.16401890257367    2.46430540869005
H         2.86656065438836   -3.40166911982656    0.60543477798093
H         2.16477599230330   -5.31395948874137    2.83033514542538
H         2.52825404349240   -5.55258151605856    1.05973396539806
H         1.06353400816956   -4.74854221510668    1.61093312746612
H         6.92165252555065   -1.91722058636763    2.83426606423138
