37
 energy: -56.179161085395 gnorm: 0.120061846848 xtb: 6.4.1 (79825abcba525fcdf90b791dcacef51065a7a4e7)
C         2.76839043996557    1.50558413118006    2.05108333526194
C         4.22598359042330    1.62495170095765    2.45625352781995
O         5.05156923701756    0.97907976223309    1.48477185234129
C         4.84944526381967   -0.38144908622600    1.06206401494651
C         5.95052046799927   -0.52844480869576    0.00329020259552
C         4.96957890698458   -1.39511610945862    2.22163491055030
O         5.29929913414436   -2.72362608180989    1.76960788053678
C         4.37403398025434   -3.63017581106201    2.40222380729818
O         4.15917676551333   -2.99595637167690    3.67757320549232
C         3.71474083049639   -1.78976759161911    3.01891678644357
C         2.55148463723815   -2.20401671224595    2.08399053011950
C         1.18696235127602   -1.99396985165099    2.74574975072833
O         0.10254496468154   -2.26999700882484    1.86899895704432
C         2.99694041023053   -3.65382791677234    1.73178644783241
C         2.11953295146535   -4.70734982940211    2.39889268581176
C         6.05493849365650   -0.85973908606130    3.17023946533303
O         5.68785264142018   -0.14166395670081    4.09813467188479
H         2.70521278808871    1.92761992883026    1.04318837787901
H         2.17320661221323    2.12546289977013    2.73004186869448
H         2.54301819530993    0.43701944923598    2.11857702598949
H         4.35626848723474    1.27025296172087    3.48189430695005
H         4.62219809350419    2.63787820168603    2.33032477443339
H         3.89968187289181   -0.46032486133631    0.52023056153414
H         5.90818667636765    0.29871121168134   -0.71222735468396
H         5.91197788171221   -1.42736389024768   -0.62032750069613
H         6.92619901527844   -0.36209909185363    0.46835173453877
H         4.82909689811951   -4.61910428266459    2.50275774536442
H         3.41761793817904   -1.08097872885553    3.79380741016407
H         2.45713573639392   -1.62543301967443    1.15934855030457
H         1.06063828827996   -1.00409120758904    3.19894896993542
H         1.16359591187998   -2.63180350526409    3.63407004475967
H        -0.64907889670811   -2.54941605543968    2.41844633879148
H         2.96722780113704   -3.73595893240621    0.63809769560112
H         2.21643084971265   -4.66861254213046    3.48802841134554
H         2.34032593492620   -5.72257110989175    2.04847867332957
H         1.06598578623053   -4.58647259605121    2.12948832398164
H         7.10498557426034   -1.05397000954506    2.90006240082717
