37
 energy: -56.173660345068 gnorm: 0.132034303535 xtb: 6.4.1 (79825abcba525fcdf90b791dcacef51065a7a4e7)
C         2.64922731578388    2.44221510226277    1.46266334073757
C         3.29327952988230    1.26590969878723    0.75238761087783
O         4.25292482289476    0.66162941382397    1.62212611284780
C         4.77283608339366   -0.55767272639425    1.06215363075543
C         5.95155307372638   -0.23067644288053    0.13550600116611
C         5.06196067920087   -1.56342627612140    2.19856199998343
O         5.20135161976343   -2.91408631285329    1.71454750290667
C         4.36251334743573   -3.67254586589759    2.60854992142589
O         4.36305688983366   -2.93531069067002    3.84604657810054
C         3.94162435626262   -1.69150327497256    3.24473085342472
C         2.56144158283495   -2.00919156984136    2.61781468769902
C         1.46760954975231   -1.88275552373529    3.68153988936732
O         0.18163366125543   -2.23976656924613    3.19199612415234
C         2.94291366312465   -3.42343934837863    2.08978699154287
C         1.90018644861951   -4.49021082697762    2.40522557666527
C         6.32364172719548   -1.21119260888827    3.00390457677649
O         7.35931127749726   -1.86815028653728    2.91923752195222
H         1.90627082192330    2.85585386963434    0.77355051354166
H         3.26044521713428    3.27012152454049    1.83744566938929
H         2.05244758583487    2.06727941134206    2.29959565751915
H         3.83449270161751    1.68394851974834   -0.10028828671944
H         2.52133138001334    0.50771147853892    0.58477025129970
H         3.91525613483685   -1.03003895367899    0.56891734100073
H         6.86572521145893   -0.37901747461706    0.71879735945287
H         5.89183385851868    0.82869494044873   -0.13394886695697
H         6.15049022831292   -0.87815968589257   -0.72303413324117
H         4.69818741309945   -4.70537401144084    2.73407983223166
H         3.84718753409652   -1.00637999740894    4.08900971474597
H         2.38423696473174   -1.31074760545130    1.79355861396186
H         1.44962346349312   -0.91623612995204    4.19799294134984
H         1.67395802046372   -2.56071121133110    4.51477879157058
H        -0.16044483001558   -1.64066633678577    2.50718442080091
H         2.91851474177776   -3.36194519332853    0.99461278326845
H         1.88339084686314   -4.60205027643875    3.49348852213351
H         2.25555965295811   -5.37706951831964    1.86726154252291
H         0.86682319572432   -4.23532285433562    2.15156411569946
H         6.17612407411098   -0.43652933463746    3.77296595834356
