37
 energy: -56.175737002301 gnorm: 0.127591416812 xtb: 6.4.1 (79825abcba525fcdf90b791dcacef51065a7a4e7)
C         3.54743224863855    2.68545086130988    0.60011884626271
C         3.13644580210590    1.40634363981850    1.30578457163758
O         4.10819286479021    0.55457048167410    1.91628349590875
C         4.70856258603153   -0.53725287301398    1.19652480223590
C         6.06485006969597   -0.01395819017316    0.70497306995663
C         5.00697522849387   -1.60676859740110    2.27060265504705
O         5.20497795866843   -2.82870530151813    1.53192274140099
C         4.30314767185077   -3.74841998912104    2.17920775132862
O         4.40249215261656   -3.34776927724689    3.55925255170029
C         3.93133043730498   -2.00836962903085    3.29419014450997
C         2.54156607473829   -2.22058090294795    2.64428584630650
C         1.47428735963933   -2.24879388523106    3.74159439613211
O         0.22850558035453   -2.04808823508543    3.08692732799901
C         2.83703922958243   -3.50179249575449    1.81024542620186
C         1.86079540704645   -4.65267167928751    2.02751948646584
C         6.22564507439433   -1.24783188133186    3.13691236557923
O         6.21296901668308   -0.44239305879606    4.06561087819269
H         4.01243573984184    3.43447533857465    1.24872654942185
H         2.60677193611612    3.07852415676818    0.19995672832940
H         4.32712464589870    2.52019863790284   -0.14951438862318
H         2.58161724908026    0.82871898763634    0.56198394376638
H         2.52509920985063    1.50598681967924    2.20866365841228
H         4.00816429790285   -0.92694478255577    0.44856912157694
H         5.83814543762406    0.53309222942527   -0.21550801041527
H         6.79713144634378   -0.77130091379754    0.40725504126196
H         6.49731028241567    0.63812687835389    1.46895274538319
H         4.69475952148176   -4.75804112169223    2.02929398509999
H         3.99551339019732   -1.36418230640363    4.17283811509123
H         2.40320869629479   -1.29983171420666    2.06835035981546
H         1.57238590797755   -1.43757646236530    4.47201205600244
H         1.50775043006547   -3.20657116963713    4.26888327800757
H        -0.03134431850110   -2.74728572994313    2.46362423601614
H         2.86000111356107   -3.21615801370494    0.75115663360144
H         1.78599719260498   -5.15196490992562    2.99819856909582
H         2.02076765580354   -5.45692038959942    1.29964131013020
H         0.81474654794086   -4.34876107212963    1.92470046562562
H         7.14928391266932   -1.80097692116442    2.90401343567774
