37
 energy: -56.175252378223 gnorm: 0.123841473690 xtb: 6.4.1 (79825abcba525fcdf90b791dcacef51065a7a4e7)
C         3.15074238129286    2.47611013554876    1.41599323416628
C         4.03745938227435    1.74916826490519    2.41011482598649
O         4.99184009045840    0.93799793640293    1.72187143807460
C         4.63769476461597   -0.39317929069495    1.30579106684692
C         5.35167494481125   -0.67515578633577   -0.02300451878447
C         4.96319447131849   -1.48227764652876    2.35196118870987
O         5.28668785958856   -2.73474461481855    1.71583154622621
C         4.50904730948949   -3.74517230704204    2.38848444369139
O         4.22815662174398   -3.16615565857898    3.67718693937596
C         3.73086064451322   -1.90958912294123    3.16730448461562
C         2.55386126609292   -2.38096885641315    2.27773839565462
C         1.17292447029262   -2.19686688425394    2.91262888604839
O         0.09798732361085   -1.95797047283113    2.01358349754924
C         3.09829793335248   -3.75640870329554    1.79174978229871
C         2.25837745625274   -4.95416282153319    2.22151903733080
C         6.13177565543581   -0.98265380742058    3.21756981977766
O         6.00677087658045   -0.09797479397765    4.06201647696932
H         3.77754623804741    3.16776156282815    0.84442250641411
H         2.42131266812516    3.06255052324709    1.98476219020462
H         2.61443972034978    1.74877042493293    0.79911810830230
H         3.52400076384381    1.24091820600471    3.23033824472611
H         4.58750043669141    2.58479407438973    2.85514112638994
H         3.54729178709750   -0.31138525679173    1.22713780546504
H         5.26779640727862    0.09891623667253   -0.79223884865081
H         4.85367876189938   -1.60380522812186   -0.31973682533797
H         6.39784024324637   -0.92346931227431    0.17644541035465
H         5.11325104203408   -4.65605811151933    2.40832690022045
H         3.41367901426352   -1.29290516575732    4.01004746031210
H         2.39973956322486   -1.75662693884957    1.39169821620614
H         1.25577954355365   -1.38366631438692    3.64272947570274
H         0.96886254693097   -3.00950837039699    3.61580967578659
H        -0.51151180007970   -2.70417867841674    2.14238561595023
H         3.21065937243799   -3.66843450101431    0.70389922205865
H         2.28617067626432   -5.04664453609067    3.31137272773654
H         2.77700653521476   -5.81701224130499    1.78709008364155
H         1.25809516123349   -4.93279731718784    1.77865282852769
H         7.11319110821689   -1.44757270412661    3.03319473062521
