37
 energy: -56.180671653808 gnorm: 0.126792582827 xtb: 6.4.1 (79825abcba525fcdf90b791dcacef51065a7a4e7)
C         3.86584347332770    2.98163716351740    1.45925200695196
C         3.52700267883384    1.53684877159793    1.77668339634063
O         4.67175322470843    0.82640387656281    1.29988884356367
C         4.48209766917627   -0.54252733418483    0.89909873128817
C         5.49721691802696   -0.84066745302206   -0.21248641127648
C         4.83728624530284   -1.41897213701953    2.12067261990028
O         5.17648252804684   -2.75738374077057    1.70644725890492
C         4.45930856522058   -3.67864906282372    2.55207280479606
O         4.20388156581889   -2.99612501885506    3.79458314628195
C         3.76082376015552   -1.77685487079621    3.15950604404813
C         2.50323740244377   -2.33306802674233    2.44679454915560
C         1.32643801596638   -2.37847205560521    3.42508262845337
O         0.07566848089509   -2.52164900208024    2.76484032436340
C         3.03040380606258   -3.72915628303093    2.00242518698822
C         2.29470962277350   -4.94687965999039    2.55077431903095
C         6.04017673607312   -0.75821638549624    2.81417139580329
O         5.94962165459579   -0.01271655175232    3.78751772420231
H         3.82918246835784    3.19997969450110    0.38736564188270
H         4.93732580834095    3.12026932859280    1.63865348384050
H         3.24787709474212    3.73256443293075    1.96065435199203
H         2.64296748308115    1.19434856862748    1.23271674168518
H         3.49258320721520    1.49527984139472    2.87027901972910
H         3.43015181392008   -0.66357848811639    0.61517661522838
H         5.15802687295968   -0.29243911276193   -1.09698647676336
H         5.40881149582524   -1.91010726829673   -0.42910360004021
H         6.55104485690863   -0.66485124221318    0.02083105991034
H         4.98704136452435   -4.60513491861679    2.79350780824564
H         3.68547109979709   -1.02202117538599    3.94415059431963
H         2.13996486236321   -1.71744413467222    1.61753958542590
H         1.42269831689223   -1.50746724955613    4.08333150029908
H         1.48615584714305   -3.24239637396189    4.07670802472412
H        -0.63808713563481   -2.57369380065748    3.42267777432270
H         3.02836108783165   -3.68527117777138    0.90613448342101
H         1.21476896247607   -4.90013619029007    2.38151236886761
H         2.63961719344329   -5.04694042408013    3.58674746748760
H         2.62615777356033   -5.87811343316077    2.08162891530500
H         7.03629164498118   -1.01229633513037    2.41854719790076
