37
 energy: -56.175300073363 gnorm: 0.117882232425 xtb: 6.4.1 (79825abcba525fcdf90b791dcacef51065a7a4e7)
C         3.69991063087534    2.82154977099793    1.30828699541251
C         4.63502858915443    2.06099088924527    2.23029233486660
O         5.19510500817128    0.82409170396076    1.78429501803957
C         4.30574369664842   -0.24468584313331    1.41372031913241
C         4.51965910761892   -0.40184798048037   -0.09774135109611
C         4.78825804149354   -1.42124089716236    2.29090631646744
O         5.19232726206423   -2.65265956032018    1.65978152615665
C         4.52824116976327   -3.69486418218939    2.40204160820076
O         4.30778555093187   -3.11966439971183    3.70413933610356
C         3.65810160182731   -1.93186099050337    3.20087333136254
C         2.54099929574572   -2.44962550116783    2.26126888278521
C         1.14092617139210   -2.38295357625606    2.87715519773565
O         0.14537066493350   -2.56379594255557    1.87865170214758
C         3.08308473689950   -3.87009077511668    1.92533331860253
C         2.49060199845455   -5.13351976392911    2.53973895741516
C         5.94354632770965   -0.92445238270344    3.17577602590157
O         5.70658142977740   -0.52422744525198    4.31377468288809
H         3.96654713884414    2.66490875335887    0.25836965066113
H         3.73853697386829    3.90560373345398    1.45932728555570
H         2.66796786431204    2.47667814743963    1.42376949236632
H         4.15872475466897    1.93462405590699    3.20594104891360
H         5.51083211838454    2.70184670541076    2.37567480499776
H         3.26941033618633    0.01919625343688    1.65503884170072
H         3.93022547329299    0.46220845376239   -0.42010611264139
H         3.99561909038413   -1.26177804391547   -0.52709246052044
H         5.58646857847871   -0.24801568773143   -0.28255175386426
H         5.20779320452009   -4.55108646139353    2.38587870700691
H         3.52517467406566   -1.34353491165913    4.11044567214844
H         2.60294997529758   -1.93471703074062    1.29708276163341
H         0.98484012670837   -1.31840777269752    3.08592868108552
H         0.97254290612763   -3.02147242522894    3.74918238172447
H         0.14236835390007   -3.44159823744999    1.46108737608442
H         3.05632928629392   -4.03999859911249    0.84172875912202
H         2.47206871920288   -5.08725180981042    3.63272668643065
H         3.12931862264770   -5.97254963957651    2.23926651747458
H         1.47496506235165   -5.25874209124332    2.15250181739726
H         6.92685901900910   -1.30427424693595    2.85616447121613
