37
 energy: -56.172892681496 gnorm: 0.136452458448 xtb: 6.4.1 (79825abcba525fcdf90b791dcacef51065a7a4e7)
C         3.03622805847798    2.63199578481157    1.71691899114152
C         4.03895479260978    1.71067786309419    1.04706702959850
O         4.09487903018074    0.45777974243823    1.73236812210841
C         4.52043119651722   -0.69447760183522    0.98284628807326
C         5.63332913522019   -0.45780320833397   -0.04692045978810
C         4.96563919676979   -1.66999914135966    2.09491857860638
O         5.07294287078398   -3.02208261679990    1.60671922661419
C         4.36543355025034   -3.85249663292650    2.54905355204539
O         4.41868233806696   -3.16464238013678    3.81354359349155
C         3.96543523667377   -1.92060369135053    3.23632816453413
C         2.58110769309642   -2.28180440470170    2.64301080142186
C         1.37438831090942   -1.77268290483528    3.43584716290199
O         0.12748415370956   -2.03971616817673    2.80754212611939
C         2.88524182128788   -3.73466942157923    2.17278040345634
C         1.95011752236300   -4.67809722964321    2.92129188583221
C         6.34469646752267   -1.24163626303828    2.62330344042409
O         6.51623981035282   -0.48784798699592    3.57920585518989
H         2.12768233679697    2.14711691948380    2.08758734251189
H         2.62493923600382    3.37451506085582    1.02483172063922
H         3.59938634468716    3.08449668899761    2.53866968169452
H         5.01436551484016    2.19177832425979    0.93825248005078
H         3.61369434851006    1.56272579868036    0.04900500503677
H         3.66005500609490   -1.15017631870447    0.47891500167685
H         6.53944924588117    0.06372940804158    0.27695394776961
H         5.26112904172024    0.24428259158415   -0.79990297024257
H         5.86057344689295   -1.41898800661081   -0.51637281933127
H         4.84930575057671   -4.83263532829321    2.56814916283668
H         3.96993421929752   -1.07600609268028    3.92752543419913
H         2.42705214556971   -1.80649082669382    1.66886121908807
H         1.52400688237088   -0.69348609041663    3.55482408643070
H         1.35631792914205   -2.27458319144290    4.40757769591750
H         0.19525598605656   -1.67442289208441    1.90928066487849
H         2.58919423636279   -3.78110411572170    1.11732646146696
H         2.14150837962589   -4.55810440098996    3.99184204855860
H         2.15477672842952   -5.73336903112270    2.70512115554670
H         0.88794501727462   -4.65670460404567    2.65959826765857
H         7.20910794402210   -1.58192153939097    2.03142610441153
