37
 energy: -56.183719701375 gnorm: 0.114054446069 xtb: 6.4.1 (79825abcba525fcdf90b791dcacef51065a7a4e7)
C         3.15409627026760    2.18603557404196    0.47331067367947
C         3.34214687896131    1.58334873517487    1.85330879056235
O         4.61627115832719    0.96068176937228    2.03054301304631
C         4.83128879753554   -0.26076935266716    1.30088613580095
C         6.11680056506738   -0.23298099917776    0.46323260128836
C         4.97597538852188   -1.46907533086363    2.25252663797838
O         5.06032123371843   -2.66216162437880    1.44790668302223
C         4.36646203907993   -3.64563841886563    2.24130675289288
O         4.30551920051267   -3.17299943294305    3.60064936146789
C         3.85353440394254   -1.85154622945416    3.23225551498206
C         2.52612111209933   -2.20598606100766    2.51727261189322
C         1.37310874379031   -2.19302957471726    3.52442726256292
O         0.10780029358148   -2.50672185038693    2.95747431282408
C         2.91172437386851   -3.52099437871417    1.77802015086683
C         1.93184322548607   -4.67163493635980    1.97961914550511
C         6.24061672314249   -1.28356232742764    3.10736667813290
O         6.26837956762835   -0.55542552234701    4.09752794209965
H         3.82047033186513    3.03294389130690    0.28186935111900
H         2.14672660949973    2.61564260541728    0.46225062484432
H         3.37205965801208    1.41707287004331   -0.27392880634793
H         2.55947323836982    0.93362435554954    2.25331446187168
H         3.47092309300995    2.42775690727317    2.53833111830748
H         3.96126318897849   -0.45265627452999    0.66206683985826
H         5.99338156887004    0.61853931875269   -0.21324760210311
H         6.35723381107490   -1.18630366604770   -0.01823160385365
H         7.00108912976992    0.04448584428363    1.04370447178188
H         4.83591522714873   -4.62326603565125    2.10336923981506
H         3.75423063484628   -1.27060935628075    4.15082511393103
H         2.22805238939425   -1.38179340372952    1.86115904565951
H         1.33615744947132   -1.14288069276508    3.83592192428493
H         1.65480022154354   -2.89346667324824    4.31596276505939
H        -0.43109292558047   -3.01388573150480    3.58777959383471
H         2.98941551741015   -3.31139737728278    0.70386161406387
H         1.86985388386034   -5.05918007821213    3.00092834015307
H         2.22336237690918   -5.55702723049741    1.40228837595960
H         0.95094399803695   -4.32315742826192    1.64264472986778
H         7.11113983730381   -1.91162577236133    2.86029206195293
