37
 energy: -56.179151172362 gnorm: 0.117278550867 xtb: 6.4.1 (79825abcba525fcdf90b791dcacef51065a7a4e7)
C         2.69114224072674    2.35133255314029    1.33898659980070
C         4.12770646839624    2.02057679069683    0.97860748129494
O         4.51472231371330    0.89696365368234    1.77247840913669
C         4.78896839497456   -0.36851061134874    1.14483316810913
C         6.05424125114110   -0.38447146142377    0.27661315910698
C         4.88338037412550   -1.51813152435285    2.17245922750172
O         4.98025728135871   -2.71922877938504    1.38128120699241
C         4.16452012485604   -3.69394408207206    2.06146782083726
O         4.31951102708490   -3.28319537418950    3.43339248914364
C         3.83733441478308   -1.93867900079385    3.21885976417941
C         2.42929306275665   -2.14676064962809    2.60814233366089
C         1.48880826290560   -2.18882311982220    3.81548859160430
O         0.17821471333383   -2.52194772176149    3.37706354474794
C         2.65418346370074   -3.50790448029541    1.88624015870356
C         1.93827399054800   -4.67538974707181    2.55648989756405
C         6.23423984472930   -1.32311374367218    2.88071838189310
O         6.48119359997039   -0.65973079218651    3.88586026669162
H         2.07790268383240    1.47587742656927    1.10345860520278
H         2.28706152825829    3.24021338431238    0.84291422061699
H         2.68969863743719    2.51545668363028    2.42076278108570
H         4.81107601450423    2.81616846897040    1.28644555620745
H         4.20788469707234    1.75362574231960   -0.08024692309949
H         4.00889912883151   -0.66277919438283    0.43296718249958
H         5.82116923061444   -0.05761309968463   -0.74161353790213
H         6.38385919058521   -1.42098692166324    0.15240465685892
H         6.89622275091038    0.18694007190140    0.67718489727200
H         4.50928553443532   -4.72460959614325    1.94300168610495
H         3.86538282414836   -1.40735795919298    4.17176597096572
H         2.18462870960331   -1.35787662595167    1.88951526255225
H         1.27572034441219   -1.22835692989302    4.29850539361537
H         1.87948867571454   -2.97323238797996    4.47013474816844
H         0.00312524614848   -2.25267692862584    2.45959813887786
H         2.37263644445141   -3.42926011688509    0.82872906103337
H         2.35937946288469   -4.69535310611540    3.56613242841094
H         2.21233878534078   -5.63126678895424    2.09453608769434
H         0.85336947964734   -4.53354463798133    2.55277557036891
H         7.03962710505253   -1.82511217665012    2.32155026029422
