37
 energy: -56.175322880891 gnorm: 0.125971575253 xtb: 6.4.1 (79825abcba525fcdf90b791dcacef51065a7a4e7)
C         5.40943081353997    3.15498292341600    0.93582499060436
C         4.36688531758276    2.17836896541514    1.44799032836960
O         4.99527715934071    0.89751780630994    1.36394982546398
C         4.15982706015145   -0.27140012099134    1.28502827457537
C         4.32389905534877   -0.90047546885398   -0.10505112529538
C         4.47779357567167   -1.28513931786820    2.40653946763781
O         5.15261702619411   -2.45111763639079    1.89361620670619
C         4.53117338564945   -3.56731440378680    2.56149601530688
O         4.21812404234636   -2.99362388255284    3.84516001677610
C         3.39681050519668   -1.95143031220734    3.27461685841579
C         2.34076599346778   -2.68378918512943    2.41016634850146
C         1.20296912947291   -2.90062577832452    3.41134869292975
O        -0.03071574346500   -3.28365579833104    2.81792337328740
C         3.19145930748042   -3.87842485670177    1.88710089808504
C         2.77540642208726   -5.28008825047872    2.31956205697101
C         5.39182486616589   -0.35978283723607    3.22675070625918
O         5.04573899096755    0.41631156917362    4.11516240899750
H         5.85704002581632    2.76343025072270    0.01697224537954
H         6.17689474392498    3.38024558177638    1.68397872541450
H         4.81724478486892    4.05772372663189    0.75819258612795
H         3.46801295015983    2.17217106728647    0.82612668572976
H         4.01480637752670    2.38102592351147    2.46476692113599
H         3.10559681974245    0.02522725232170    1.33468763635425
H         4.00972354986859   -0.14328603889461   -0.83024246874736
H         3.90775220763664   -1.89629190657672   -0.28838540412938
H         5.36721299125366   -1.13029248206939   -0.33867878515521
H         5.27990724800184   -4.35946221436481    2.64556898849509
H         3.09243453643318   -1.37568547642415    4.15039774729723
H         1.97833414444829   -1.96038413589374    1.67263546184617
H         1.00390899723473   -1.86576291069682    3.71241498241801
H         1.39081612992894   -3.50462340267488    4.30375613567649
H         0.14423395065106   -4.03075262917572    2.22114470181201
H         3.25738099757243   -3.79952404835474    0.79475828971929
H         1.71035726111855   -5.52200894248482    2.25436195582905
H         2.94291490356506   -5.28633564564799    3.40312822095341
H         3.28982655914176   -6.09858107169724    1.80712371893884
H         6.46642274718483   -0.39383680842918    2.98716819310166
