37
 energy: -56.178261572786 gnorm: 0.120903096619 xtb: 6.4.1 (79825abcba525fcdf90b791dcacef51065a7a4e7)
C         3.87574712720917    2.59892073057700    2.20901923652665
C         3.39556934471966    1.31006903631454    1.56770815988777
O         4.49722577348971    0.78976620172233    0.82060914653475
C         4.54566647232181   -0.64055743859040    0.67093431753941
C         5.67558467424439   -0.88262778536689   -0.33884939644246
C         4.82565849717923   -1.35761814954261    2.01033195299595
O         5.20986428155423   -2.71484584911393    1.71317626208506
C         4.41270236372038   -3.53924134660562    2.58670696008656
O         4.27852279952032   -2.73896738919719    3.77686302240009
C         3.73606849098218   -1.60349341140771    3.06786011318976
C         2.42525259784670   -2.27098101408435    2.58301327431539
C         1.27329157087961   -2.18499418122116    3.58778096722982
O         0.03577764643851   -2.50630391419671    2.96636052507859
C         2.93573741314366   -3.69421953718520    2.21122234530408
C         2.30991489262019   -4.95836171394078    2.79007791106036
C         6.06490014222793   -0.70604861514896    2.64611643603091
O         5.99289216683973    0.13611147893132    3.53883961469636
H         4.35792373133606    3.26622089693343    1.48778828496372
H         4.62069311572069    2.34164515123686    2.96950784011393
H         3.04179129099468    3.08896736527772    2.72043930345770
H         2.58917909635230    1.41811053445089    0.83778613949222
H         3.05290005818245    0.59574157465099    2.32347142906350
H         3.65608064502345   -0.91929008307197    0.09404562753950
H         5.21026498363145   -0.89522538490018   -1.32943684367820
H         6.19338176660260   -1.84283244675363   -0.24756266951479
H         6.38672953031113   -0.06438440012746   -0.48255923630065
H         4.94285364025263   -4.47643184691851    2.77586946827688
H         3.64994574210456   -0.75704069319152    3.75139492040760
H         2.08545619322491   -1.83526044216599    1.63786270331740
H         1.22108544312912   -1.17274920833863    4.00472421810061
H         1.37660100255141   -2.92813385957166    4.38374660560245
H         0.21171074933334   -2.61785479895875    2.01688182467728
H         2.88341718129090   -3.77809459856911    1.11851423838885
H         1.22903668376839   -4.80703706007423    2.71320424307687
H         2.70649939007180   -5.27768456833013    3.76114301187052
H         2.62476267908692   -5.74039027514219    2.09261547507120
H         6.98434130797435   -1.15393877072819    2.23704122636950
