37
 energy: -56.178971304514 gnorm: 0.116035847496 xtb: 6.4.1 (79825abcba525fcdf90b791dcacef51065a7a4e7)
C         3.26906058151378    2.83185883122178    1.52433808257475
C         3.23626195045138    1.36265751778476    1.14570763715886
O         4.37614634188462    0.69655705361573    1.69296676045353
C         4.73155279792798   -0.52732579140180    1.02485627711221
C         5.99747945662030   -0.37763433512897    0.17045689990177
C         4.98230909661686   -1.57467339455352    2.13243988777237
O         5.19933513824809   -2.90386689122180    1.61850728299356
C         4.36737002856552   -3.75642683624079    2.43037331097662
O         4.38185358194565   -3.10734617859543    3.71621875002439
C         3.89226762272370   -1.85879547040930    3.17987038889816
C         2.57119172551292   -2.16002388503268    2.42962102680083
C         1.34497458062735   -1.98790453319307    3.33002777521227
O         0.17668167660764   -2.57005365423095    2.76696645336850
C         2.91298705129721   -3.60877928260902    1.97276797913671
C         2.02296327638916   -4.69949578888816    2.55841130153431
C         6.22249639014039   -1.15236310079878    2.93747017003244
O         6.14985102322600   -0.46373464014553    3.95328845970010
H         2.31410521234206    3.28576496370889    1.24151776005482
H         4.18049777494556    3.22745205803447    1.06361430215202
H         3.43425253461327    2.98044501792046    2.59569809836252
H         3.41271081422276    1.21703899471028    0.07688333825639
H         2.31401640679892    0.88860921630082    1.49728327078655
H         3.94689365034618   -0.96445720926921    0.39630128132813
H         5.80363325170907    0.53897531511205   -0.39540082480525
H         6.26747744308435   -1.20048177579633   -0.49921705406220
H         6.79579183858175   -0.09762568445648    0.86341736707129
H         4.70509223592226   -4.79614010857243    2.41994116574126
H         3.91940187237548   -1.12034747862185    3.98303742919161
H         2.53852342383732   -1.53424977160268    1.53186657853368
H         1.28721250266961   -0.90864192350905    3.51185943230537
H         1.69735774034689   -2.46692152779950    4.24810157255157
H        -0.52782624631575   -2.51428268587200    3.43439737615284
H         2.91850297110232   -3.56689854141983    0.87641085049510
H         0.99941765482638   -4.48066678862662    2.23970356829300
H         2.23214848589895   -4.80075319691405    3.62995329092962
H         2.33880263039985   -5.68170756243474    2.19418999627619
H         7.14367803164255   -1.56602038880111    2.49743371989273
