37
 energy: -56.179748135605 gnorm: 0.109143070993 xtb: 6.4.1 (79825abcba525fcdf90b791dcacef51065a7a4e7)
C         4.61706266342408    2.95186290978115    2.07703240303982
C         3.88315673967487    1.80673841456374    1.40393413691741
O         4.79829900035673    0.80435783125092    0.95642249557793
C         4.33004792555972   -0.54520366761967    0.78321901456348
C         5.05614241578562   -1.11006250855146   -0.44507150919618
C         4.65774358613899   -1.28949498137150    2.09668906675716
O         5.16399332927706   -2.58378708527196    1.71393355657928
C         4.52425415520564   -3.50739622264147    2.61716712625041
O         4.30020555812326   -2.75456818026498    3.82462982781163
C         3.59616222360987   -1.70138921134624    3.13081429178737
C         2.39888015893902   -2.51807949056808    2.58456609152491
C         1.25292086251361   -2.73099185185717    3.57724512261692
O         0.00040848076056   -2.77199840304136    2.90614511783212
C         3.10603924462393   -3.83122257904553    2.13733867493182
C         2.47176898557085   -5.12544612291253    2.63480190744885
C         5.66958431391463   -0.29575511144123    2.69094830607433
O         5.56929181801263    0.34831776384924    3.73329421769191
H         5.36289064036273    3.39256621143263    1.40809361360007
H         5.05805025061636    2.68024957419506    3.04203722696558
H         3.81252749309924    3.68693637461987    2.17485206507595
H         3.36147044656634    2.16605689408023    0.51317154480697
H         3.24597371777339    1.41955592680934    2.20577676413700
H         3.25168007817869   -0.66267021425314    0.62453767491966
H         4.91199748024933   -0.40611994239552   -1.27068140811667
H         4.56665669140627   -2.06630449223143   -0.65589150494971
H         6.11565572546600   -1.30518153486712   -0.25729007437589
H         5.18241451103416   -4.33385368045967    2.89816868250034
H         3.35539857859414   -0.90080357515434    3.83239441252315
H         1.87910545684781   -2.09420366425571    1.71924120963345
H         1.23986668596883   -1.85731893506001    4.23885849569677
H         1.40273340204610   -3.60460607208036    4.21821712838019
H        -0.12276865867246   -3.54676401753450    2.33214904210243
H         3.08177648566904   -3.87746060821307    1.04141130755701
H         1.39571332718817   -5.02258993808849    2.46559423996045
H         2.76151515051738   -5.33792242604968    3.67071442854680
H         2.97475114272812   -5.94003137965467    2.10507419054080
H         6.65231209499593   -0.34965842905566    2.19631640392913
