37
 energy: -56.183742381249 gnorm: 0.114736636711 xtb: 6.4.1 (79825abcba525fcdf90b791dcacef51065a7a4e7)
C         3.44744431130968    2.28446414725023    0.25315480736703
C         3.13863300216462    1.58658014643767    1.56486466566353
O         4.19689911579998    0.79073465787459    2.10265791838567
C         4.67797025507849   -0.34657927464424    1.36396843233978
C         5.95611157565959    0.00932348947939    0.59282375111902
C         5.00585702014523   -1.51075285203380    2.32508618191063
O         5.15106579064416   -2.75294135336362    1.60824273026466
C         4.31110128673235   -3.69456287645895    2.30535060441437
O         4.33693390815946   -3.22642012629809    3.66736712434054
C         3.92982276077500   -1.87459449275480    3.36229202384465
C         2.58408898351415   -2.12487509386597    2.63757525298773
C         1.43346130056512   -2.22526584087903    3.64253469450815
O         0.16421336383997   -2.18568562072366    3.00356127206162
C         2.91577176760819   -3.36977253363646    1.76313382750968
C         1.96596620376485   -4.56235918139090    1.78286609336210
C         6.32399905318545   -1.37912503421935    3.10589343360791
O         6.31014609493754   -0.97407337315241    4.26654607787673
H         4.34803697391375    2.90559601510394    0.22020143717211
H         2.55223732423644    2.88829128169545    0.07019196472090
H         3.47167422976452    1.52614764788480   -0.53522804166619
H         2.22239118152731    1.00466024254717    1.43604508846970
H         2.87227509119273    2.25120570477653    2.39323076231661
H         3.92898735066429   -0.70549280139124    0.64838410587482
H         5.85262208536790    0.84597829740090   -0.10520433882640
H         6.41630824619541   -0.91753798949980    0.23563072137687
H         6.69860100042148    0.38404679027047    1.30288967289962
H         4.51414948453428   -4.76752474894018    2.25345601425720
H         3.90264489102427   -1.34194520800234    4.31448165443942
H         2.42853877575776   -1.24554045601332    2.00417315072498
H         1.51692106874833   -1.30797983271249    4.23652781987108
H         1.56426407596446   -3.15488069525309    4.20395923345876
H        -0.12895378505192   -3.10101730584363    2.85821073277568
H         3.10069245519682   -3.08411687838682    0.72006693390290
H         1.89537763495572   -5.02483845816462    2.77192450887966
H         2.41993854907690   -5.37561435063182    1.20429986456691
H         0.99432510442455   -4.40919218182139    1.30369487438950
H         7.23076510855231   -1.83635705377974    2.67923871600669
