37
 energy: -56.168291335422 gnorm: 0.139767394551 xtb: 6.4.1 (79825abcba525fcdf90b791dcacef51065a7a4e7)
C         2.59435463518308    2.31436281637520    1.51883348529799
C         3.05984732761119    1.08155465874234    0.76617827389358
O         4.07835091728239    0.52800384083563    1.60209138783623
C         4.86280472907487   -0.54522163036577    1.05127935060297
C         6.18226196646480   -0.22640663853335    0.33548207557260
C         5.12727716212713   -1.54774698266745    2.19651052915223
O         5.20329594711369   -2.89939881738174    1.70129255352659
C         4.23088557110511   -3.69225229882854    2.41118850574759
O         4.30449903633731   -3.08760559752687    3.71652271325620
C         4.00029290887661   -1.76563095020825    3.22045364735809
C         2.59930813977628   -1.95022691576712    2.58640301169944
C         1.56494744935292   -1.77676953346150    3.70173990450917
O         0.26551763717517   -2.09118139815271    3.21855121349641
C         2.78306434469903   -3.38692000015688    2.01493333071305
C         1.79364928930828   -4.46424168714453    2.44530380881873
C         6.36047485826791   -1.08797631985832    2.99169518270416
O         7.45555881128419   -1.64519615806015    3.03256676972414
H         1.91039555301076    2.91890814404815    0.91494376818886
H         3.43135580316671    2.95122641210174    1.82430355919645
H         1.99375620307275    1.91960147060073    2.34383259109815
H         3.52711171245273    1.41594371137588   -0.16364552304770
H         2.32047078090406    0.30983790707115    0.52818743533233
H         4.14271182236955   -1.19372041881200    0.53866761500059
H         7.06333865981735   -0.35597167394116    0.97176921422253
H         6.08141994689249    0.80798580542912   -0.00847024539782
H         6.28424688535721   -0.89373492543826   -0.52485143208071
H         4.54838923985608   -4.73556999698117    2.48766338025450
H         3.93326644366376   -1.12390618929861    4.10068986028118
H         2.44078011286148   -1.24216199703796    1.76656373037315
H         1.62294014341830   -0.76184063080327    4.11132892173101
H         1.74349375317348   -2.39595415220700    4.58560770756357
H        -0.06310931711161   -1.59399023372121    2.45062470546574
H         2.70060668378410   -3.30281877915443    0.92410286893487
H         2.13367367730284   -4.58567417068033    3.47813678738317
H         2.03598318018250   -5.33244998856037    1.82104233939344
H         0.72127859749400   -4.24729957991363    2.45573662265742
H         6.23260420958788   -0.11724074178713    3.49631541470000
