37
 energy: -56.175621654077 gnorm: 0.119717643568 xtb: 6.4.1 (79825abcba525fcdf90b791dcacef51065a7a4e7)
C         2.35152484982230    2.17049088911939    1.19519944339653
C         3.58888428129555    1.54166716453304    0.58159401183347
O         4.15868273031788    0.71149608332841    1.59582500196137
C         4.72026867014873   -0.54584186710646    1.17833597327709
C         5.90514579723189   -0.37325977817438    0.21851424546002
C         5.01813792538979   -1.60158870789887    2.26609959950407
O         5.21708499379522   -2.83868996578005    1.55337037329591
C         4.34564826405563   -3.79753715233094    2.18532050280072
O         4.35857241849230   -3.33076352002862    3.54799042653138
C         3.92784572677679   -1.97763233428000    3.28388178107750
C         2.54079951902505   -2.27064114543904    2.66010066837123
C         1.50629160013480   -2.36647210432323    3.78463421554124
O         1.23157532038175   -1.12565477648790    4.42161718161961
C         2.91055921666147   -3.48105679879245    1.75312619386694
C         2.03409194425133   -4.72121512944827    1.88949106346602
C         6.18686378673718   -1.27878666514416    3.21180725987714
O         6.32363012533391   -0.22507328403242    3.83015699148652
H         1.96655622341183    2.96162598101588    0.54415236975971
H         2.75454662006069    2.65491537491758    2.09095863623986
H         1.57095033778072    1.48237802684846    1.53340446964832
H         4.20463154911032    2.33261474339078    0.14572526759943
H         3.29241746888648    0.93203878338498   -0.27824593081030
H         3.98825022829870   -1.10876705489029    0.58747262894766
H         5.59390934342065    0.23790777907619   -0.63445154966121
H         6.24422498294309   -1.36966442954354   -0.08255570547800
H         6.69773919843417    0.17349117592044    0.73693570005983
H         4.74586235836286   -4.80649133992537    2.05490215205760
H         3.83282337283288   -1.34693781887019    4.16949693361565
H         2.16373857781136   -1.55123299418533    1.92600225288329
H         1.90662535725078   -3.12458524285232    4.46742580357570
H         0.53018641618958   -2.75611605095252    3.48150562859956
H         0.55667515630216   -0.54816695475938    4.02674576396007
H         2.83430985377996   -3.14045548178230    0.71295305066607
H         2.28988314300535   -5.21173737789154    2.83345355317077
H         2.17847032278153   -5.35502108526327    1.00650824903768
H         0.96118799776645   -4.50681361448263    1.88169727703266
H         6.93208081306347   -2.08659324223594    3.28542907482059
