37
 energy: -56.174260595585 gnorm: 0.117576251140 xtb: 6.4.1 (79825abcba525fcdf90b791dcacef51065a7a4e7)
C         4.73149271325453    3.04975334575288    1.82172374589160
C         3.86081698765355    1.84550736826911    1.51398250946194
O         4.74809067119887    0.82831510509449    1.04431868966388
C         4.31855266782656   -0.53627419183110    0.88950352727970
C         4.86549272343193   -1.05229471153876   -0.44823916203450
C         4.65211400489938   -1.31145950683272    2.18348255490973
O         5.18277593124419   -2.58285649789966    1.75930099196799
C         4.50849839377492   -3.55643402342591    2.58127876383163
O         4.29283753967942   -2.81169596711909    3.79526788747625
C         3.54124472416805   -1.76222046462179    3.14723065378226
C         2.36593654747852   -2.54850506423328    2.51535931210497
C         1.20231221249091   -2.49703708710944    3.50898666725494
O        -0.02926588514614   -2.89634312310214    2.92194830411190
C         3.09657356819900   -3.84700258601188    2.06313739210747
C         2.68540121508069   -5.20191547251964    2.62876207031175
C         5.70086663609507   -0.45764509059580    2.91533166219025
O         5.43060037818086    0.26329199547215    3.87375702253191
H         5.50896147926883    3.11070535929746    1.05374911167398
H         5.20352859901200    2.71047112410678    2.74991976909139
H         4.17489059869292    3.98318241490801    1.94854163956042
H         3.20045967181212    2.11609659680211    0.68607308231610
H         3.21785419532475    1.54388094200779    2.34733981799923
H         3.22549198445551   -0.61610330483195    0.91597805508250
H         4.37911199709530   -0.44655876323025   -1.21925298102894
H         4.62449846577324   -2.08329500240781   -0.72644805946348
H         5.95022636132333   -0.98541124806890   -0.56981725657806
H         5.16123024199235   -4.42911616795009    2.66808785242034
H         3.23326546419478   -0.96772778436109    3.82917577718439
H         2.08433523444117   -1.98693962645737    1.61871642425544
H         1.12724248883770   -1.41801754414465    3.68587182123972
H         1.57417323942495   -2.99751915090699    4.40772341736449
H         0.20485663639071   -3.47823956595967    2.17932523247365
H         3.13033341180273   -3.85924121175182    0.96655458228907
H         1.60885405395057   -5.33605201197336    2.48677620108226
H         2.89536187456398   -5.19806160437279    3.70491978053205
H         3.21432343234997   -5.99318848652127    2.08905851276711
H         6.70280379025981   -0.72537812521582    2.54416995595866
