37
 energy: -56.179214956419 gnorm: 0.119320421196 xtb: 6.4.1 (79825abcba525fcdf90b791dcacef51065a7a4e7)
C         2.80964917367420    2.42809151353318    1.95413033637186
C         3.11016286096038    1.19060747508138    1.12871284218962
O         4.25363773930843    0.52620464200841    1.67051804442716
C         4.72688553302028   -0.67596395194163    1.03695527042839
C         5.94894992189158   -0.54218433245978    0.11845770314837
C         5.09020651434691   -1.64392351276898    2.18482692383897
O         5.36846179626108   -2.99015742490663    1.75099443907520
C         4.42283977592499   -3.73503102267606    2.54416098581129
O         4.35791831094844   -3.05139248621529    3.81039063375914
C         3.96774077221888   -1.78924438634004    3.22645013729847
C         2.65409481370005   -2.08539109211068    2.46127981743203
C         1.48148793826852   -1.95140780091426    3.43647594011031
O         0.30562014366806   -2.03296250259975    2.64178874860837
C         3.02632067055990   -3.51043545656249    1.95617841712971
C         1.97077753676528   -4.58373209028724    2.19834765627815
C         6.38948170040795   -1.11876892707704    2.81774151834833
O         6.51264111874952   -0.21988077990351    3.64732282471119
H         1.81412263874685    2.83862941984240    1.75831559312804
H         3.46754128830360    3.25699728446126    1.67204639907265
H         2.91216516303480    2.28899617407821    3.03455686196936
H         3.17904751868293    1.30773063109381    0.04415698687873
H         2.27820428697954    0.50370603054860    1.31546240386438
H         3.91843100509418   -1.10951949360121    0.43671689821143
H         5.70965231928652    0.12231157019529   -0.71768009220394
H         6.26708306105472   -1.52655017259893   -0.23966969965162
H         6.69979239796387   -0.04830141489299    0.74152828766148
H         4.72383796175368   -4.77784479946698    2.67495978277112
H         4.02887864687555   -0.98019950387868    3.95640050488499
H         2.35060248948642   -1.39065036166052    1.67143728103604
H         1.39830217920410   -0.93013181275289    3.82542642380761
H         1.56916465396984   -2.73203933275561    4.19767096999135
H        -0.35943560560788   -1.46647498590351    3.06804993215822
H         3.27011225450612   -3.45847323641659    0.88769867096902
H         1.09201374059447   -4.31762467999015    1.60331200611813
H         1.64188028088937   -4.66880523508046    3.24084605060073
H         2.27905536772992   -5.61724003109081    2.01401714771550
H         7.28049378257804   -1.64956455247351    2.44669770603526
