37
 energy: -56.181683565269 gnorm: 0.117662082286 xtb: 6.4.1 (79825abcba525fcdf90b791dcacef51065a7a4e7)
C         3.11397287754522    2.84876712652977    1.54013467879907
C         3.89407599645753    1.69601752019471    0.93548871914062
O         4.27904315483590    0.67825863643388    1.86203388979007
C         4.56220143862377   -0.54295611335174    1.15561296114148
C         5.57875921249101   -0.49680149818248    0.00693712223784
C         4.94363590650502   -1.54788161672346    2.26520283810570
O         5.21547206519254   -2.83823829226131    1.68290809711587
C         4.40855614903002   -3.76177156801084    2.44061770923895
O         4.39993214777739   -3.18857499570452    3.76208859035754
C         3.91078213523442   -1.89303773352832    3.35153004359725
C         2.57371721493341   -2.24512160802225    2.65356976255100
C         1.34196628170420   -2.34324258336868    3.55752097649012
O         0.12454381668136   -2.68763770497143    2.90935548241488
C         2.97739144955686   -3.56425497443373    1.93151349848897
C         2.05547230390744   -4.72235822638501    2.29708822583805
C         6.20182006996837   -1.14459928379717    3.05185412804754
O         6.42354821102650   -0.09816404473287    3.65781058559846
H         2.80514648794449    3.47267312469593    0.69554872305271
H         3.80442901145854    3.39918421115550    2.18804634044267
H         2.25589222978823    2.37869699865842    2.02994096525196
H         4.75111860657327    2.13232927999185    0.41603289668185
H         3.24120268654542    1.25248674814257    0.17660733169966
H         3.62025470775533   -0.95843323989761    0.77882340165287
H         5.17519359791271    0.00383450634379   -0.87875071614347
H         5.94523186055306   -1.48861170228921   -0.27670058985734
H         6.38247512936726    0.09425658516739    0.45481297982746
H         4.78243161319939   -4.78909093560608    2.44154968264887
H         3.79855988528259   -1.16485767729382    4.15668778265086
H         2.34192565123797   -1.55728043941646    1.83395356293504
H         1.24269854421275   -1.35152491562625    4.01342554827859
H         1.53878657927953   -3.13049939657282    4.29099159603273
H        -0.24803948345512   -1.87111732293022    2.53601649203471
H         2.90257452081269   -3.40804668858875    0.84810001178849
H         1.05106709938729   -4.36395054085163    2.05250590900026
H         2.17807721272039   -4.98358438816033    3.35488909684530
H         2.46649594761113   -5.57574828369107    1.74942354290223
H         7.01716528440453   -1.88238215459750    2.98697985883848
