37
 energy: -56.181618661854 gnorm: 0.118723281565 xtb: 6.4.1 (79825abcba525fcdf90b791dcacef51065a7a4e7)
C         2.58095542380458    2.05122248073054    1.93118248452280
C         3.90516963586100    1.47159108689540    1.46915063844829
O         3.58481944443868    0.15792762964250    1.00635169487006
C         4.61287037994928   -0.79665903677877    0.68627338067004
C         5.84815027239039   -0.23211748444989   -0.02811623645671
C         5.04632188668283   -1.66828831309766    1.88583136107850
O         5.19307895576942   -3.07193950723785    1.59221924439317
C         4.25769221178811   -3.69002097710615    2.49840787241426
O         4.52393997393421   -2.90192377186158    3.67438786000071
C         4.04823499693807   -1.68633130932938    3.05609777760124
C         2.58339331513502   -2.05427574822261    2.71300882937177
C         1.73246627454918   -1.90567738640174    3.97705302029596
O         0.35488755492756   -2.18103480105331    3.75956926504398
C         2.84548714542461   -3.40242761086370    1.97937098680038
C         1.83186317345059   -4.51227481068166    2.23547382622017
C         6.36244094941626   -1.22380189390423    2.54518459401268
O         6.49750812883726   -0.27329873955504    3.31308687119753
H         2.68472928009397    2.95521808887948    2.53944295061356
H         1.96374261815300    1.36470258215661    2.52043365319248
H         1.98949969551933    2.36138189559580    1.06448774144615
H         4.64526349238088    1.34805356560186    2.26396124248302
H         4.37072843074304    1.93707143677916    0.59425229501921
H         4.12416033779818   -1.43746135636694   -0.05695613707009
H         5.51611139362980    0.16406610892761   -0.99286143394072
H         6.56465150134240   -1.04653364317637   -0.17573852774880
H         6.35478752604290    0.56438520807216    0.52397420103817
H         4.37952652145323   -4.74900490602183    2.74105635969758
H         4.18146027278010   -0.82264446771487    3.70986770145619
H         2.22811706320225   -1.32945760358161    1.97338661105004
H         1.86268070459053   -0.87193849116301    4.31710468246796
H         2.07097966048814   -2.66831206728552    4.68436323625763
H         0.06759205571817   -1.63246126548141    3.01028011421934
H         2.93704366377768   -3.40594923964657    0.88603277506432
H         1.80719486928995   -4.79730131594460    3.29153148762278
H         2.06114569056336   -5.33422792634007    1.54697082725518
H         0.87046826498718   -4.18710109208510    1.82665414160490
H         7.24764991091301   -1.86524246683236    2.40998427727088
