37
 energy: -56.179024373281 gnorm: 0.126080698321 xtb: 6.4.1 (79825abcba525fcdf90b791dcacef51065a7a4e7)
C         3.27345432251967    2.67302920136512    1.79304679351668
C         4.54987484600960    2.14517756108254    1.16446697387067
O         4.94654345224003    0.86299811044350    1.65557667765939
C         4.54651009938562   -0.38192580479852    1.05498319919540
C         5.35814784225579   -0.78710357247182   -0.18277747567187
C         4.78988572260399   -1.42383052905913    2.16932625492438
O         5.09543627808042   -2.73065913393027    1.64318894720376
C         4.29197547236697   -3.64218119252276    2.41890100515494
O         4.24797539305278   -2.98063386301154    3.69770244947947
C         3.65724782538342   -1.78363842499961    3.14590011218164
C         2.36772242895528   -2.29232082244235    2.45508832875048
C         1.22344703315826   -2.42417859097627    3.46365829914164
O        -0.04945312557726   -2.69344403597271    2.89088842529670
C         2.85737316874758   -3.65478953850729    1.88206803364167
C         2.24590272849789   -4.87325058866044    2.56488541772348
C         6.14237555003160   -1.00319298118415    2.76792456878941
O         6.30273445467098   -0.44382675562408    3.85086865563685
H         2.51795385162821    1.88108437539395    1.79249228704647
H         2.79954727356244    3.53360711837911    1.30900554897866
H         3.44749551009526    2.91801932962979    2.84512475149728
H         5.39366427786663    2.73495237570488    1.53176714624506
H         4.50665216701673    2.12015531998013    0.07068007902422
H         3.53750337518470   -0.25617177104034    0.64517014028665
H         5.21794492228590   -0.09430524290355   -1.01843184464198
H         5.13399168410579   -1.83314468759044   -0.41513944434368
H         6.43704605775778   -0.72959205537947   -0.01374250223878
H         4.81680533456112   -4.59863184444867    2.48907665171193
H         3.59450223046797   -1.13482726016333    4.02124360302531
H         1.94826955357625   -1.67144790819107    1.65684041935925
H         1.22400300033760   -1.46557842918974    3.99497030868326
H         1.47583766262403   -3.24033870886980    4.14679250404564
H        -0.70190011430941   -2.69293835999612    3.61145662509012
H         2.79606822051452   -3.68268570671157    0.78696669406894
H         2.43281770751516   -4.90910181623164    3.64232863695077
H         2.71340590132364   -5.78268461299905    2.16917806362368
H         1.15892411337801   -4.94826276666520    2.46487385839142
H         6.97537681449847   -1.34274224871222    2.13220815054359
