37
 energy: -56.174948477300 gnorm: 0.120128765841 xtb: 6.4.1 (79825abcba525fcdf90b791dcacef51065a7a4e7)
C         2.51888390759778    1.95271329562244    2.31288939097902
C         3.78331814294930    1.37955459374659    1.69995837608231
O         3.46430632226074    0.10481248667838    1.13801281423408
C         4.55484018016124   -0.76342067700818    0.78096708342354
C         5.74461589177239   -0.02348179112851    0.15494764653818
C         5.00233571294633   -1.70025232860846    1.92493010656944
O         5.06079121215734   -3.02365378668895    1.35644621898599
C         4.40016609027121   -3.79963500797989    2.37604342005166
O         4.66674919947027   -3.09128549860597    3.60164057651390
C         4.08818889337524   -1.84606357082527    3.15338487496844
C         2.68183609101599   -2.20219335417121    2.61098505797457
C         1.42736001613695   -1.73549700420617    3.35425495813763
O         0.37750634237169   -1.19432810745504    2.56318767831389
C         2.88190422924554   -3.69169561900039    2.20381595374642
C         2.22016855939693   -4.80345235030688    3.01059088169430
C         6.37523969075762   -1.24223270097090    2.44438844196293
O         6.49090596635911   -0.17364438579660    3.04114101745793
H         2.65618605367240    3.00068779526168    2.59724029621257
H         2.29401177087409    1.40574514196097    3.23470093386320
H         1.74164703130094    1.87191767513471    1.54702163092809
H         4.57905831420742    1.21855228570962    2.43180547109843
H         4.20822320210120    2.06057902255431    0.95529370246284
H         4.09028324188412   -1.43602459376437    0.05045625197560
H         5.25596657848020    0.61718835895193   -0.58580074313746
H         6.24607633212317   -0.79099156405368   -0.44330498824924
H         6.35530366277995    0.49920375368226    0.89640700077784
H         4.75471184232949   -4.83191950178089    2.43813083132644
H         4.12093589990489   -1.01020824935108    3.85437882537832
H         2.59331853548928   -1.59509606394441    1.70422100938611
H         1.72211593007709   -1.00999787848379    4.12105151111613
H         0.96527403114592   -2.55061993521265    3.91865004121445
H         0.68339747239895   -0.31141398799178    2.29523409083120
H         2.63002200182436   -3.95388540883877    1.16863711441967
H         2.65634414000364   -4.99424689832684    3.99570746808510
H         2.42147791425553   -5.76444253041631    2.52254767950566
H         1.13308529904335   -4.92738182644670    3.01715521456079
H         7.12448064923516   -2.03694431837482    2.30158968846420
