37
 energy: -56.183356055092 gnorm: 0.125022892554 xtb: 6.4.1 (79825abcba525fcdf90b791dcacef51065a7a4e7)
C         2.65658875321843    1.92685921915285    2.24709340605245
C         3.80882806785473    1.32036586733892    1.46767078139046
O         3.58409346037510    0.04003415991138    0.87373150847117
C         4.65848533247193   -0.90009215513236    0.69367823054307
C         5.82982701796806   -0.23446833542652   -0.04108683649217
C         5.06980321822045   -1.58660653330967    2.01506869595779
O         5.26297495469637   -2.97875775248833    1.69478435338255
C         4.25957819510329   -3.63067507468499    2.49874306535474
O         4.38984610647879   -2.88141094565458    3.72207765216812
C         3.95923377912458   -1.66315555936571    3.07657808565570
C         2.54157448359096   -1.95810394178950    2.52694022703770
C         1.59932617839325   -1.88060184729097    3.73115260734977
O         0.24693888683527   -1.89310952434199    3.29327574491303
C         2.84360589475291   -3.38066446515920    1.97058642340997
C         1.94281816924464   -4.54567244457774    2.36570768423862
C         6.43191518237115   -1.18319050164320    2.60361837659396
O         6.70607439365790   -0.13748721591747    3.18903673365188
H         3.04019986365478    2.85732860117627    2.67724118581566
H         2.34699085945715    1.30555908779981    3.09421408699115
H         1.81572325516854    2.18692005359444    1.59709948829830
H         4.59969894429680    1.18903843004962    2.21063827233853
H         4.21890500862240    2.08497743609988    0.79978598139414
H         4.27864886390847   -1.68599484565043    0.03040117071130
H         5.42016194727962    0.15484483124016   -0.97839913821082
H         6.53154321020102   -0.99470361665987   -0.39896493547136
H         6.36831874521027    0.52104826242458    0.53781128103655
H         4.48107848358378   -4.69136908680233    2.64377634283085
H         3.93143143054279   -0.77507215798925    3.71033979886180
H         2.23126702274495   -1.15789051887291    1.84724082819546
H         1.59361105316787   -0.88452180936509    4.18831657555132
H         1.77452468408682   -2.61119583400895    4.52615485975159
H        -0.02743604114784   -2.82527921697393    3.26712395315450
H         2.92374622748227   -3.33191486904829    0.87743300881234
H         1.83252060883192   -4.52761094598249    3.45410771292541
H         2.35320276694477   -5.50656402489784    2.03331393391715
H         0.98609453659391   -4.35258054243293    1.87119071028069
H         7.24505948471965   -1.88485143684991    2.35910188275588
