37
 energy: -56.182005522516 gnorm: 0.118130316975 xtb: 6.4.1 (79825abcba525fcdf90b791dcacef51065a7a4e7)
C         2.35721858579185    2.01055170872332    1.88152810515911
C         3.23762425526514    1.17656132183645    0.96920406252505
O         4.11821991425597    0.40541301847590    1.78920429820825
C         4.91819078272221   -0.58157115875667    1.11356870871510
C         6.18193263483033   -0.04508488149539    0.42791927650273
C         5.18783812424763   -1.62834133776976    2.21725331749304
O         5.20461453859590   -2.92251719146299    1.58258031771362
C         4.24385473844194   -3.69408665817480    2.33075945678258
O         4.35467570468090   -3.12415528086647    3.64902001982078
C         4.02740357649982   -1.78612008059906    3.21451154808983
C         2.70962174734903   -1.98480878524012    2.42531698471601
C         1.49498136905213   -1.73170789915731    3.32228664750348
O         0.19963372824071   -2.04164725422729    2.82544054738920
C         2.80284752811299   -3.43947343741012    1.87787688480763
C         1.89748010265117   -4.56650987206494    2.36252275754648
C         6.51168968536967   -1.43896031810757    2.97622375685605
O         6.88997588984168   -0.46069991035761    3.61753446055891
H         1.68760902297911    2.66591648934540    1.31577382333965
H         3.05205378832551    2.67531958806270    2.40570924664108
H         1.85136947811848    1.32280784292998    2.56585520258801
H         3.76964183482241    1.72540496340388    0.18788960070030
H         2.56356877493408    0.48029917683700    0.45956468116033
H         4.34801804729175   -1.16917689182493    0.38454346167263
H         6.03424413799083    0.46977185544151   -0.52657284287705
H         6.72622976840386   -0.95153840033429    0.14415407447015
H         6.71259144675030    0.59227338917268    1.14071473862720
H         4.49947439407732   -4.75583330597499    2.38097361486894
H         3.88678767968030   -1.05146908239318    4.00926565277548
H         2.71051360298659   -1.26170016128541    1.60328496640354
H         1.53960783678162   -0.68480577191520    3.64355196987873
H         1.62720249936878   -2.28040627362838    4.25927028443093
H        -0.21243234554516   -1.26844421785703    2.40441267904070
H         2.80662297689259   -3.53034687243064    0.78448256322823
H         0.88387068352874   -4.40065344302715    1.98543658585555
H         1.85924744327170   -4.42602338541711    3.44926815702315
H         2.27207990330460   -5.56605096820917    2.12222250497613
H         7.11109431978213   -2.36309938971326    2.97517064774039
