37
 energy: -56.176612256137 gnorm: 0.119133201494 xtb: 6.4.1 (79825abcba525fcdf90b791dcacef51065a7a4e7)
C         4.10697157543154    3.10730982125398    1.65159690757196
C         3.74545682596923    1.64940957188154    1.86798362255819
O         4.68139826876996    0.84462980817003    1.14766289973782
C         4.46369950346370   -0.54716217356731    0.85424013319174
C         5.26651277435090   -0.90297760456032   -0.40427580615048
C         4.80576901684550   -1.40295193566469    2.09406654021015
O         5.06288098010118   -2.76684494679435    1.70461604440676
C         4.43600428283294   -3.62767014133924    2.67629317440128
O         4.32886226838025   -2.79910281470888    3.84971157460527
C         3.72870668153176   -1.68352208213188    3.15578380499048
C         2.50477777986197   -2.37404336733563    2.50460596232798
C         1.17915776847087   -2.27195624594824    3.26373419452788
O         0.22903286002649   -3.00395062622839    2.50065434718742
C         3.01889668411365   -3.79213957932116    2.11845077045237
C         2.27969757087397   -4.99257012784464    2.69925545465513
C         6.02152939535361   -0.74575387243022    2.76823393578469
O         5.95328259752633   -0.05881008416105    3.78549688810215
H         3.68034289041561    3.54695169920265    0.74459037393163
H         5.19482160124613    3.21322082641167    1.58200279650644
H         3.74430770943846    3.69600182415242    2.49959169852092
H         2.72321748997117    1.47455439646715    1.52276377794213
H         3.74956388544116    1.50066536370124    2.95275196254415
H         3.38648282522529   -0.68196511456915    0.70163726068909
H         4.82982038949447   -0.21452014098529   -1.13452963327922
H         5.10830928623917   -1.94490030154811   -0.70060128054730
H         6.30562208901298   -0.73750908217915   -0.10632662598372
H         4.95226465681873   -4.55662306263334    2.93259476620693
H         3.62445497334269   -0.84921081345676    3.85161085872259
H         2.32900589626863   -1.86466103347174    1.55158057057816
H         0.92820331596746   -1.22894968797206    3.48815827782115
H         1.27239715615300   -2.76131761340598    4.23755272726512
H        -0.46279899388495   -3.30300988792068    3.11452574750333
H         3.06208916205292   -3.76495254391718    1.02246780953399
H         1.31053287991459   -5.14554842057685    2.21508210713596
H         2.25925928578212   -4.93304160183902    3.79390260315615
H         2.87198170305430   -5.90962629496859    2.62604946483335
H         6.94663823110347   -1.12827958719121    2.30870399077041
