37
 energy: -56.173088758321 gnorm: 0.121313278856 xtb: 6.4.1 (79825abcba525fcdf90b791dcacef51065a7a4e7)
C         3.60917231523162    2.36374545458330    0.29115652257701
C         3.05150647885167    1.53850025712450    1.43613182441974
O         4.04085842086411    0.74864053002234    2.09932346304933
C         4.64852002584504   -0.33237841390735    1.36944674531134
C         5.92031587048912    0.12870427782078    0.64493709841722
C         4.89160206940657   -1.44402227077968    2.41429901758563
O         5.12861798661623   -2.64508918737302    1.65321812516398
C         4.33132566413046   -3.64804174851105    2.31394649161321
O         4.26912626872577   -3.19514908611802    3.67993823483302
C         3.76832918778856   -1.87573663161474    3.37237374190160
C         2.44008822467355   -2.18493453285169    2.63818929136205
C         1.46042500762837   -2.36141214179165    3.80140962095660
O         0.10971689916328   -2.42408450480323    3.36265712406547
C         2.87352265962318   -3.47256061651315    1.87754178705249
C         1.98627086958127   -4.69936246386379    2.05788704855720
C         6.20728090778730   -1.09861204685347    3.13135218996412
O         7.28094890585394   -1.64204627872084    2.87977799388404
H         2.81848275031396    2.86168489032282   -0.27877698127257
H         4.12465132840743    1.61575694833758   -0.32062182152594
H         4.33463321716243    3.09273969844469    0.66458977199189
H         2.21167495231835    0.96124545542804    1.04093031192535
H         2.62383474275609    2.15761121995349    2.23153270773256
H         3.99369131420059   -0.77287309611785    0.60851373411950
H         6.04613420835266    1.21041468883544    0.75455869908650
H         5.87425524491494   -0.26180272539522   -0.37673933701984
H         6.81082382520229   -0.37567880371708    1.03028759092173
H         4.78698724137618   -4.59860798884216    2.02417906244232
H         3.62746841036157   -1.22410977489119    4.23646846159296
H         2.04536082384997   -1.47566832373962    1.90350892860947
H         1.40785246334211   -1.50299852434380    4.48079845285399
H         1.70630418520849   -3.23194582568885    4.41639353003094
H        -0.10637856249936   -1.71610793060794    2.73259540149197
H         2.89262573085920   -3.23704626885115    0.80611682645680
H         2.23369145442677   -4.92941735355141    3.09854270510840
H         2.25945586386877   -5.46418038534072    1.32124788447828
H         0.92925285070355   -4.43436194599668    1.95970731403032
H         6.00800536759811   -0.26806691170234    3.82691246308795
