37
 energy: -56.176488778849 gnorm: 0.118450693502 xtb: 6.4.1 (79825abcba525fcdf90b791dcacef51065a7a4e7)
C         2.95733936164123    2.38797348138182    1.08935084206132
C         3.72259963492253    1.61259364722920    2.14583183129627
O         4.85904507457780    0.90409696569883    1.64678974631621
C         4.76681298317786   -0.45451028572242    1.18175839628949
C         5.87996743636977   -0.59792912578924    0.13519528150725
C         4.99885529930724   -1.53836699163682    2.25784770052986
O         5.33138498362275   -2.86829457910934    1.81209103623178
C         4.36061686673719   -3.70971846867745    2.46612922915287
O         4.11110291564204   -3.07506826391563    3.73493807131615
C         3.79581976694334   -1.77669145900859    3.18625139254789
C         2.51014010800371   -2.17273657716555    2.41876830410273
C         1.32609022932026   -2.27119608864284    3.38432384268015
O         0.09150592075407   -2.30978643736405    2.68065038231091
C         3.03646804594761   -3.46868507645480    1.73471614487241
C         2.11887468280919   -4.68112438845070    1.84783671489232
C         6.11701958026172   -1.07911057063139    3.20825627493052
O         5.90556229162163   -0.31739606631984    4.14977108684775
H         3.47050705433121    3.33899274377157    0.91562937409450
H         1.88792389829846    2.49319932670295    1.30090756118446
H         2.93143702711168    1.82464739132737    0.15170949105410
H         3.02884692776754    1.01125013363037    2.73897387852080
H         4.16489573326637    2.33753931700330    2.83698448943268
H         3.85484337139996   -0.65852243504968    0.60856933149476
H         5.56214380064198   -0.28666995980306   -0.86482993388012
H         6.11805555502897   -1.66603482974345    0.10512374649761
H         6.74851969945187   -0.02607746704727    0.47358021005760
H         4.68548334093199   -4.74698786096790    2.58318816065017
H         3.90514961152503   -1.00495789315366    3.95018418459607
H         2.29207224946281   -1.32281348156798    1.76401593747226
H         1.26927509889372   -1.50247357690748    4.16345459661053
H         1.50066256658343   -3.18694547663354    3.95652855254292
H         0.22805547331446   -2.52141660077274    1.74178258255092
H         3.26468886346426   -3.26084319396496    0.68186269262752
H         1.72221113568902   -4.86486456712177    2.85083420610671
H         2.58250272941793   -5.53449790393900    1.33890014755818
H         1.22359184121844   -4.43634042290884    1.26843955164555
H         7.10271790959834   -1.55254132233941    3.07565846976983
