37
 energy: -56.167441257424 gnorm: 0.134357684645 xtb: 6.4.1 (79825abcba525fcdf90b791dcacef51065a7a4e7)
C         2.84204165371070    2.38836882968533    1.93597218344498
C         3.59784316148089    1.48980365897301    0.97454928972918
O         4.07078580919916    0.39073128514270    1.75613995721462
C         4.66850740430441   -0.68340114736079    1.00811388707837
C         5.90162528675690   -0.40972015617436    0.13662371231528
C         5.05055184592448   -1.69016106016497    2.11582941981964
O         5.07765008035584   -3.04239796906348    1.61712769662033
C         4.22011059293097   -3.72619234524610    2.55265007999574
O         4.29335598799348   -3.01364517269821    3.80238029270496
C         3.99329856543778   -1.72073157791810    3.23265858079500
C         2.67013146325795   -2.02697976900356    2.48814864087190
C         1.48950417753064   -1.70606345028303    3.40852779646673
O         0.19577449898714   -2.07221749455961    2.94696665059141
C         2.77287175478721   -3.52904392308736    2.09106095254434
C         1.81313188952014   -4.62198999668045    2.54839142516181
C         6.44196338293437   -1.41818296547562    2.71121675301870
O         6.77872951048878   -0.42733073952739    3.35633203598697
H         2.02200572845203    1.79300699138470    2.34954591598504
H         2.58063748537214    3.44080997413100    1.78263054780394
H         3.51153461170516    2.57252563321914    2.78157491043245
H         4.41001265867950    2.04174344174070    0.49447896294642
H         2.90415994658271    1.14651776029111    0.20006723673804
H         3.88096657139527   -1.14403020001041    0.40028533582505
H         6.61499214579949    0.30383611736658    0.56075779766349
H         5.71624064999560   -0.11953185611398   -0.90254100708411
H         6.33861038529421   -1.41180397760233    0.10880729501954
H         4.53648302892442   -4.75689507429886    2.73356213572793
H         4.18580749565278   -0.94701155355305    3.97792137496197
H         2.59018503562060   -1.34544383948556    1.63507136140577
H         1.41044113618589   -0.61307953270320    3.39002963790180
H         1.59311541382666   -2.06177371299409    4.43771464967663
H         0.22496011747019   -2.22918990667758    1.98810601847763
H         2.92644493431703   -3.63895555017259    1.01026583727444
H         1.52012615452050   -4.54168631692140    3.59948863221515
H         2.36793653216031   -5.56669991951520    2.50447429207937
H         0.92582601125849   -4.61859707463478    1.90821302371596
H         7.19975129501081   -2.16240633125381    2.41931078500686
