37
 energy: -56.180060842099 gnorm: 0.122156369369 xtb: 6.4.1 (79825abcba525fcdf90b791dcacef51065a7a4e7)
C         3.58022988876129    2.99060296617219    1.33422776318207
C         3.36909216598639    1.50404611258260    1.55458846479020
O         4.59400819772431    0.78008670500982    1.42049044384784
C         4.59162898852981   -0.59199305717530    0.98693994351054
C         5.66219363705690   -0.77281136605870   -0.09757478378852
C         4.93357755716103   -1.54817891420410    2.15112933655719
O         5.24264641479186   -2.87776547699266    1.68781693258975
C         4.35282014545447   -3.66766380944016    2.50170924337815
O         4.33297692297031   -2.97202358990881    3.76290110032616
C         3.83539103174135   -1.73291640085107    3.21220653438210
C         2.51829831280900   -2.24476374896886    2.57806676475243
C         1.40607647024231   -2.29353444077812    3.62904244199348
O         0.24462262532652   -2.67498840654483    2.90353447498796
C         2.94952668004514   -3.57562120360767    1.89447955028926
C         2.12510320643154   -4.76633480585943    2.37124990780706
C         6.17763184168309   -1.02833986476373    2.89044019455928
O         6.16786135448874   -0.10728984127592    3.70465434826004
H         3.62947177503484    3.34674773653426    0.30045118892707
H         4.44310086561242    3.32904463928217    1.91765648133720
H         2.70879864384085    3.57295345273039    1.64832012875807
H         2.64423833579422    1.13690741124627    0.82347942452196
H         2.97435599187121    1.38080138654452    2.56842185696521
H         3.59574547503003   -0.89916230060649    0.64676600107870
H         5.46760822495094   -0.20192655597181   -1.01090473892430
H         5.93940119937191   -1.81464629474740   -0.28777461526924
H         6.61298220145407   -0.29530645526135    0.15519362413620
H         4.79019062625836   -4.66958661425026    2.49655485997682
H         3.66995162275092   -0.93732249379623    3.94075243163024
H         2.05503392829849   -1.53363227097092    1.88647321465419
H         1.34369047341390   -1.26585423889121    4.00479287098270
H         1.60326868018713   -3.04826940747808    4.39584165265438
H        -0.54472324539639   -2.59243888669727    3.46480493155329
H         3.02811329104767   -3.56044958407625    0.80023216652039
H         1.06358150650439   -4.69270130852517    2.11658114807150
H         2.15231327248502   -4.81390274878800    3.46633467781251
H         2.40521891405430   -5.71201985530569    1.89757638920788
H         7.09456814075642   -1.61953151878198    2.73864990827854
