37
 energy: -56.172110271403 gnorm: 0.132411852836 xtb: 6.4.1 (79825abcba525fcdf90b791dcacef51065a7a4e7)
C         4.33466232862022    3.22034827367102    1.98227509398007
C         4.02947982863355    2.02430383753010    1.09947804015010
O         4.50542875062071    0.84987088014133    1.76030987274352
C         4.36513565711197   -0.40739476909279    1.07461629065385
C         5.30134048263282   -0.55006754439292   -0.13291894260581
C         4.66299668086231   -1.49027507967663    2.13537386061021
O         5.03510378420083   -2.76500386678695    1.57449469002696
C         4.41463358321766   -3.72801955021883    2.44957666789858
O         4.22766553562751   -3.07169358503456    3.71811645852556
C         3.60564078451303   -1.88397489356081    3.18085258542423
C         2.42006650143557   -2.55077196306979    2.44014364743163
C         1.16279693132348   -2.48258652696015    3.31111439046754
O        -0.03820442620518   -2.89994429775640    2.67530603555111
C         2.94276073900153   -3.97930403794072    2.10770117130078
C         2.28465459538321   -5.14595591072468    2.83612602347026
C         5.93279027097256   -0.93536548820627    2.80184530474338
O         6.13151412461573    0.02021606612190    3.54933856261525
H         3.75795454083157    3.30693051550715    2.90848755242910
H         4.17280374740842    4.14665389315931    1.42081461883778
H         5.34355563874737    3.26615432206838    2.40324376406530
H         4.38734103271355    2.14411644787245    0.07365902466413
H         2.93877060785120    1.98693330244807    1.01104208348132
H         3.29986743267911   -0.54549845858276    0.85555842737943
H         4.83677633393634   -0.58661668867215   -1.12326682229544
H         5.89786451958684   -1.45757065536341    0.00505662583051
H         5.97741172381827    0.30647088652679   -0.20483102487411
H         5.10679442301670   -4.57077951965953    2.52598268192216
H         3.44527112994566   -1.21575306428944    4.02872069241006
H         2.07532543803182   -2.01882167797885    1.54750367882767
H         1.07187184824640   -1.42950282936718    3.60086323928750
H         1.35060591035472   -3.10216517412537    4.19278371890395
H        -0.16212866655037   -2.47722942530992    1.80878380186181
H         2.90980736427487   -4.27675726740421    1.05213539288339
H         2.54730625886572   -4.94886652995020    3.87981002556467
H         2.73689927236826   -6.11877304397591    2.60959707981411
H         1.19145224303465   -5.14003614985022    2.79112342596519
H         6.80763726796549   -1.55573753618564    2.55064534444600
