37
 energy: -56.176959011788 gnorm: 0.120779151268 xtb: 6.4.1 (79825abcba525fcdf90b791dcacef51065a7a4e7)
C         4.37970370780488    3.02667463207828    1.71910351994313
C         3.88933039030299    1.59664165360824    1.58670647698693
O         4.90349240703242    0.75242957210325    1.03779827320351
C         4.38012109181606   -0.56979623959857    0.81785257329542
C         5.09703901516187   -1.05002940318296   -0.45115536385857
C         4.75866974545695   -1.28024093440789    2.13638464861893
O         5.21506130712023   -2.62590082475103    1.89371447900304
C         4.39540890457280   -3.51283725353840    2.68090226781642
O         4.11749700191557   -2.71806474424464    3.84966897734544
C         3.59244690867961   -1.61244934843055    3.08274008553175
C         2.39246157623514   -2.34458135074779    2.43245377814683
C         1.27833184355311   -2.61409475689756    3.44736431958568
O         0.07970738319881   -3.17226309981639    2.92526137409359
C         3.05494502667138   -3.67089771855829    1.95660550377781
C         2.39111525237280   -4.95954630449456    2.42936103841256
C         5.84312817062371   -0.52241476749851    2.92005169190334
O         5.75828120104221    0.10997067902937    3.97089092405236
H         4.45827274060858    3.35236671654214    0.67712969729851
H         5.36217608405747    2.99140142705650    2.20178560610162
H         3.72892035764353    3.59543537098350    2.39005119197513
H         3.03835425315800    1.66158380826495    0.90381081679395
H         3.51215529090379    1.16090216536018    2.51769204131122
H         3.29137462792164   -0.47708448875864    0.72902102257270
H         4.89382136450232   -0.35710811289836   -1.27365599144586
H         4.85425071969211   -2.04677506612813   -0.83324438493211
H         6.17626355155740   -0.97322234236084   -0.29216847557179
H         4.95522077677877   -4.42199934198867    2.91585714404440
H         3.49962262545159   -0.80308770617091    3.80898832016280
H         2.05248160785379   -1.74585035283296    1.58124383596991
H         1.12700076824846   -1.61589057481115    3.87385502443446
H         1.63999007784300   -3.28639539162041    4.23075812790413
H        -0.53850036820871   -3.19146750762824    3.67516551494567
H         3.13019991521001   -3.63942307391703    0.86247139974232
H         1.33784562825106   -4.95447659283356    2.13321278249395
H         2.59361589416873   -5.14541688154463    3.49080315674075
H         2.90121272136825   -5.72752200612498    1.84015349972646
H         6.84159659901127   -0.70122967014598    2.49062626032325
