37
 energy: -56.175347601439 gnorm: 0.133026995501 xtb: 6.4.1 (79825abcba525fcdf90b791dcacef51065a7a4e7)
C         3.76928424464506    2.73560490386850    0.55475417225704
C         3.18260309203288    1.56565996104590    1.32288392520381
O         4.18596034701589    0.80259339987013    1.99632467498543
C         4.47665302357948   -0.44670230073773    1.34414939004115
C         5.53418574386022   -0.33460502587133    0.23778829441924
C         4.92924733823014   -1.44348128268709    2.43417104511356
O         5.19220581822555   -2.70331694439364    1.78482574762566
C         4.38505410768074   -3.62974887307308    2.53873612107270
O         4.27877550419678   -3.12198926496678    3.88253633167110
C         3.82350202205794   -1.82732917768624    3.43217629898992
C         2.50466574752452   -2.16761369803259    2.69479477562719
C         1.37420545934076   -2.42945567138500    3.69352606788202
O         0.14913636258083   -2.75322366641572    3.04914733004739
C         2.97281389429042   -3.46332074124874    1.96925254644816
C         1.99648767797122   -4.63375618628879    2.00988387997031
C         6.17945538947906   -1.04078468195422    3.23373310367276
O         7.32828782133524   -1.18290779595035    2.81977857937635
H         2.95705224857048    3.40552466844762    0.25568133484711
H         4.24788648746611    2.44229710848581   -0.38566519656822
H         4.48963282199808    3.28928606198442    1.16443738646171
H         2.43732528853048    0.93838937391191    0.82708463109201
H         2.66571461194149    1.99107786411806    2.18931913390344
H         3.63936991680444   -0.94905966335252    0.84570248296806
H         6.33550190471844    0.32829664765682    0.57896030744890
H         5.08309618486522    0.18417593884481   -0.61416508199971
H         5.95211844655938   -1.33422820375379    0.08950657663303
H         4.78657317776775   -4.64479278368271    2.59904452737636
H         3.70973782114973   -1.21440842734824    4.32800264793075
H         2.28572293952586   -1.32851466471064    2.02651312322559
H         1.12340891845307   -1.54715354183200    4.29340191938381
H         1.73951052872946   -3.20585754429533    4.37193818873692
H        -0.14548635054760   -2.04212002730704    2.45548503367653
H         2.98738491355424   -3.27887897165721    0.88779413422980
H         1.65196550705170   -4.83156835761260    3.02933530448150
H         2.58060012930719   -5.51654006108661    1.72401848324263
H         1.10930075916098   -4.30364668712906    1.46117747706608
H         5.95281325839244   -0.68285446136794    4.25051200444758
