37
 energy: -56.177335308420 gnorm: 0.128819264465 xtb: 6.4.1 (79825abcba525fcdf90b791dcacef51065a7a4e7)
C         2.69171541070695    1.90743482373894    2.20936002350827
C         4.02444468664082    1.39992371502017    1.69046272044733
O         3.67801330882739    0.25883050390872    0.90280139150393
C         4.59429874901753   -0.83238880487886    0.70221232973836
C         5.86100268530158   -0.50104631236962   -0.09819345466164
C         5.05445580397917   -1.56421392272196    1.98254222650494
O         5.28514524722979   -2.97733486486933    1.81564715351133
C         4.31608025161863   -3.67115950456847    2.62661648647455
O         4.36791585036019   -2.79064796809275    3.76544328531091
C         3.93868133788130   -1.61773388425357    3.03999642702502
C         2.58025845164286   -2.06326560275612    2.44414161506762
C         1.51256225189105   -1.82491644694680    3.51520669146407
O         0.23468183516525   -2.24430894796612    3.05479867466267
C         2.91894276114454   -3.52167267913066    2.01662237563406
C         1.93851147094612   -4.60933330795398    2.44151267463554
C         6.36491420666380   -1.02302915252044    2.57777499965403
O         6.47458591620699    0.03661506763302    3.19137057984475
H         2.86828139027850    2.97620984775373    2.36589203893426
H         2.34726125928283    1.37064751162221    3.09969079228597
H         1.92233846215287    1.76257713212675    1.44499500637907
H         4.69118384455453    1.07132392520880    2.49183991318324
H         4.50998283179358    2.14252739647745    1.04885806176415
H         4.07578093280432   -1.56071364332133    0.06775394771967
H         5.51737662760134   -0.14528917258031   -1.07456559316440
H         6.55160634184835   -1.35026075123265   -0.07971475818010
H         6.24836495294194    0.43893382313717    0.30465829028194
H         4.72562364655100   -4.65674357995814    2.86340130490770
H         3.96398700874438   -0.74700867135726    3.69750401954258
H         2.34195076892849   -1.41839585944415    1.59209937310173
H         1.40884176419705   -0.77329070996616    3.80595119071346
H         1.84988694809559   -2.23940287205721    4.46961945598763
H        -0.44450129671003   -1.69276043909395    3.47836728579151
H         3.12450787837232   -3.78201230464577    0.97079751374654
H         0.89976844991146   -4.30455976622261    2.28266553166620
H         2.03647196770675   -4.78984400256513    3.51856113350272
H         2.06197496396735   -5.58042115058562    1.95274197853811
H         7.25954969727677   -1.57013207655164    2.24069078310185
