37
 energy: -56.179581396423 gnorm: 0.116942575326 xtb: 6.4.1 (79825abcba525fcdf90b791dcacef51065a7a4e7)
C         4.31362546515509    3.19222462328571    1.72531799592863
C         3.72332926374236    1.85000703294115    1.33417658801929
O         4.72087661447496    0.83763724231773    1.48426155736292
C         4.38389021558513   -0.46976819507517    0.98656104691422
C         5.25650931838538   -0.69152788172687   -0.25615158442771
C         4.71811847292496   -1.43949391753776    2.14175829907430
O         5.15619542119492   -2.75540086700065    1.74874445175123
C         4.45350272340916   -3.68502354271958    2.59737600298490
O         4.31916881800585   -2.90616965404824    3.80164133536094
C         3.62555250070482   -1.81540471873008    3.15714842516287
C         2.40736013307756   -2.44376857776534    2.43602401508663
C         1.18970149062121   -2.42330184460946    3.36384642417771
O         0.03186134180779   -2.86987077970652    2.67042999600444
C         3.03829721713833   -3.80629231630178    2.02386091998097
C         2.35974019642502   -5.04130468971062    2.60617331829128
C         5.88532350266701   -0.80387590076091    2.91513171199217
O         5.87435687591062   -0.57208008526648    4.12241119263493
H         4.56806461785104    3.29132229795446    2.78522282070524
H         3.69357746842820    4.03319003555537    1.39699526232343
H         5.29112630195905    3.26285628939777    1.23881845577095
H         3.32039104628614    1.80972202866447    0.31892181744260
H         2.84672270056021    1.58105301730220    1.93258174686597
H         3.32859204399658   -0.46789356808698    0.68958042314096
H         5.70610469416220    0.24664941699560   -0.59619851942993
H         4.69162893732946   -1.17473180636743   -1.05980832550274
H         6.14403083662560   -1.25486466340010    0.04527657603771
H         5.04992175718458   -4.59550156781370    2.69976210039467
H         3.41512263430643   -0.99107414320332    3.84075458549435
H         2.19003927499872   -1.98966631763583    1.46381709508688
H         0.96082959038218   -1.42595546119720    3.75643378250010
H         1.40519120753664   -3.14878708983366    4.15360968630782
H        -0.29848874913146   -2.09709312106551    2.18197389780065
H         3.16157491827483   -3.92305098525003    0.93990824738357
H         2.42107868630268   -5.17723243353147    3.69008642641528
H         3.00746513866897   -5.83852740536390    2.22263441004807
H         1.28937379836869   -5.16112452715816    2.41353219021892
H         6.84336923744831   -0.66437169578523    2.38976802971268
