37
 energy: -56.185249766002 gnorm: 0.112926191936 xtb: 6.4.1 (79825abcba525fcdf90b791dcacef51065a7a4e7)
C         4.25129047868232    3.04484880603156    1.68883960450198
C         3.80749349421494    1.60089949168064    1.83390467730841
O         4.70057323781781    0.75985252396532    1.10071482076428
C         4.36951316841787   -0.62781777288869    0.91271226164715
C         5.07324601047722   -0.99147596724345   -0.40162746939989
C         4.79148590116674   -1.41521941405477    2.17306729926164
O         5.29420200249458   -2.72405120368951    1.83807741966178
C         4.50603413870015   -3.60424006500239    2.66403736648190
O         4.23503876121632   -2.83524428557899    3.85152250793498
C         3.64724682950372   -1.71359685405921    3.15679196687695
C         2.44370774292747   -2.38159403441593    2.44677252865328
C         1.23778897402200   -2.38486181649735    3.39001964041569
O         0.16584857821979   -2.79558495708497    2.55151247914226
C         3.10963331283790   -3.73118065436923    2.04728531010149
C         2.40172230501616   -4.98339935179486    2.55284762535459
C         5.92189442282108   -0.54715321202918    2.75023438582918
O         5.99356211957511    0.01478542474424    3.84131732615640
H         4.45084230373257    3.24137961813758    0.63076939071846
H         5.07936771296348    3.41125988872375    2.30488276135801
H         3.38057881021746    3.66936991219713    1.91022862433409
H         2.83161818489086    1.58543126494487    1.34181479759049
H         3.74442566442874    1.37765923366929    2.90397490573785
H         3.28807328833855   -0.75225034532756    0.78286793648970
H         4.77940417048237   -0.17694041389048   -1.07105511464108
H         4.66278297673091   -1.96041041870418   -0.70349857534798
H         6.14960658002625   -1.03131461715306   -0.21251767723879
H         5.07872769653838   -4.51516564740752    2.85744232253691
H         3.36763872966079   -0.93343111782153    3.86691851625966
H         2.06429461178550   -1.88371272272842    1.54856131957991
H         1.00791163274866   -1.40934246918238    3.83355700907048
H         1.34209652110294   -3.08804981678472    4.22136628054665
H        -0.63633417300625   -3.09834582590876    3.00949123548688
H         3.13168256794423   -3.78636005560592    0.95172497989936
H         1.41619520038072   -5.20102503023005    2.13037658987696
H         2.24287917363000   -4.94527906096390    3.63706598527812
H         3.08721083158248   -5.83420598918339    2.49466539685360
H         6.80082178680624   -0.62460783577243    2.09083503724460
