37
 energy: -56.178445814489 gnorm: 0.130339251634 xtb: 6.4.1 (79825abcba525fcdf90b791dcacef51065a7a4e7)
C         2.77712189820477    2.10074981146846    2.10142418973190
C         3.99248669935055    1.48404383297403    1.43392782427037
O         3.59529507844676    0.23074550192339    0.87356999090458
C         4.60528453245213   -0.77987054259932    0.70283312822316
C         5.87913142901658   -0.45389319986908   -0.08838679403176
C         4.95506556823554   -1.51138779243590    2.01778289852194
O         5.17806245548538   -2.87946819413470    1.62204206091613
C         4.27048629085988   -3.59370040703266    2.48478693648716
O         4.37210001170351   -2.89678437352997    3.74132848851560
C         3.91923947413790   -1.66167626150922    3.14494929742342
C         2.51472976403514   -2.00607728381237    2.59033716708244
C         1.69121153937853   -2.17208867209149    3.87026836051266
O         0.31345162649912   -2.28998475098949    3.54053799545408
C         2.82837651080665   -3.41276856594303    2.00103559627664
C         1.85514377326532   -4.51523652490314    2.40373322227403
C         6.28588803258475   -1.11470727495585    2.67811643111971
O         6.62805976515192    0.02653806252085    2.98118553341438
H         3.05852064612044    2.99552440814678    2.66547297694050
H         2.41514955363584    1.36565617081414    2.82812324807403
H         2.03589614460940    2.30534377761429    1.32302569858742
H         4.81962703036671    1.40300606782767    2.14385464078453
H         4.21883013559526    2.18228886516433    0.62147069733275
H         3.98013169789055   -1.49508432335908    0.15555949492051
H         5.60636773095910   -0.07085994927407   -1.07673392380474
H         6.38789872682954   -1.39934700868458   -0.30219270098443
H         6.56264819716566    0.24671425413538    0.39931774916804
H         4.50350766181236   -4.65736968210871    2.58213956446052
H         3.95814344093324   -0.94807938468847    3.96980381808203
H         2.17857749915055   -1.40248161924910    1.74104484732466
H         1.79632410851164   -1.38965631458264    4.63050381786996
H         1.87515105606473   -3.12760231780650    4.36991884204883
H         0.15456351072945   -1.78998227308883    2.72221169006984
H         2.97123390743666   -3.34705849292170    0.91519152847827
H         1.90438099396543   -4.85679886697213    3.44200932025052
H         2.10377147326112   -5.32188300913083    1.70393362737700
H         0.84586058328116   -4.14372605435444    2.20253917740823
H         7.06285687009311   -1.88393209458369    2.81202923817768
