37
 energy: -56.173827664908 gnorm: 0.121362875017 xtb: 6.4.1 (79825abcba525fcdf90b791dcacef51065a7a4e7)
C         3.48927314005415    2.76946742606540    0.75346843008065
C         4.19734255634031    1.78017286321633    1.66061959201400
O         3.49986669133183    0.55083222193167    1.44903556929165
C         4.19700840891632   -0.58835617099223    0.91348183226524
C         5.19296251689605   -0.30139269401937   -0.21819987763020
C         4.79799120978737   -1.42398412762664    2.06548129443050
O         5.16832549989112   -2.71245571295224    1.53569277623688
C         4.51006594592242   -3.66982798492375    2.38908808221802
O         4.52849479507432   -3.03223937672887    3.68062016315718
C         3.90422305947166   -1.79962740500774    3.25967434472560
C         2.55214971993454   -2.35272865718416    2.74505712661070
C         1.47983668472599   -2.31378448812455    3.83711663770361
O         0.22018599271502   -2.83630371351919    3.43574678884133
C         3.00270882151033   -3.70521999212809    2.11880267833596
C         2.53020539871397   -4.98667537898858    2.79658990906375
C         6.06377300778742   -0.78243567245025    2.65767743233530
O         6.03076532113384   -0.21492549848803    3.74773064278766
H         2.51819052708635    3.02508633495061    1.18891693518680
H         3.20792034035093    2.26412904551764   -0.17655946352979
H         3.89741933236884    3.71304316890557    0.37895538539079
H         4.07532377707997    1.97528806200440    2.72915401423762
H         5.26536947398027    1.69321024077999    1.43563056151232
H         3.42850490845339   -1.27217405977399    0.53446901853698
H         5.50966700895456    0.74618325438646   -0.20311834301703
H         4.61443806220304   -0.45935474726609   -1.13405875450869
H         5.91603749032657   -1.12179644790818   -0.21960387297817
H         5.06614524787939   -4.60982794822985    2.43751009977317
H         3.90639505622765   -1.07097707939939    4.07219079571403
H         2.28279303334702   -1.67548007131941    1.92810863086723
H         1.27165870396561   -1.30816313359989    4.21999338968776
H         1.69848985974546   -2.95847917421130    4.69330015537810
H         0.04286224862204   -2.84554748750226    2.48003935856691
H         2.85285345481955   -3.77737659243470    1.03431193754497
H         1.44334217759269   -4.99371238296836    2.92222911165635
H         3.00366073702306   -5.00414829215038    3.78540156549936
H         2.90322332270007   -5.87396319161390    2.27627308943675
H         7.06132715802435   -0.82414451654919    2.19241823060206
