37
 energy: -56.175637089785 gnorm: 0.127625287298 xtb: 6.4.1 (79825abcba525fcdf90b791dcacef51065a7a4e7)
C         2.58615376788420    2.05901297833808    1.99711538261155
C         3.92953621821918    1.43844147196624    1.66065757304378
O         3.73596708998393    0.34154534408683    0.76518637282000
C         4.65721867602648   -0.76163347244135    0.69542537621628
C         5.93017651568238   -0.40536343464117   -0.08407840446289
C         4.98705333039646   -1.56852007629677    1.97084700029592
O         5.12007524686022   -2.94188126720152    1.55351424258975
C         4.27418359146411   -3.61766235928122    2.50532204699388
O         4.41288414359882   -2.86788120539921    3.72741220681997
C         3.92867209702423   -1.66963761601006    3.08243634372827
C         2.52912436807261   -2.05625647967969    2.54332018418849
C         1.68304477899204   -2.13318053498440    3.81697552790973
O         0.27509625715736   -2.04413967218211    3.64205651140083
C         2.83705017853404   -3.48002713695573    1.99332945529411
C         1.91196380020233   -4.60178295582665    2.45230877835590
C         6.33994745318267   -1.12764983166803    2.55376655517989
O         6.53474712574246   -0.09401244119468    3.19017848844793
H         2.75975973768412    2.84918258100137    2.73430656193363
H         1.95969422689313    1.33667072945454    2.53120177860443
H         2.12768914701028    2.46744807268517    1.09148329161139
H         4.54745280888448    1.16732837882533    2.52054193147755
H         4.54682462594277    2.19303265948997    1.16224888368264
H         4.12412773553684   -1.45914338440408    0.03880582729998
H         5.65584388831730    0.26081537102431   -0.90802741597262
H         6.11354682375782   -1.33242642844447   -0.63668095709078
H         6.80584445706774    0.06985500807303    0.36678165290347
H         4.56157555934907   -4.66958957507210    2.58293527405643
H         4.04474829421027   -0.95424413726541    3.89843726782070
H         2.00921117700580   -1.43990167579632    1.80276596484926
H         1.90881304397592   -1.29316131190328    4.48376139851109
H         1.86890918914972   -3.08032690907963    4.33161991505134
H         0.17575770477954   -1.56517630729783    2.80203758255337
H         2.95086263315417   -3.40377177502723    0.90474540396668
H         1.99605040938448   -4.83221518167262    3.51858117609675
H         2.18964940555955   -5.52901118864857    1.93718523525704
H         0.88124656092104   -4.26156079023066    2.31438676182738
H         7.18469725560524   -1.80572815708492    2.35394760222406
