37
 energy: -56.181949159385 gnorm: 0.118027260533 xtb: 6.4.1 (79825abcba525fcdf90b791dcacef51065a7a4e7)
C         3.54485376450539    2.90850820686890    1.66178045629350
C         3.34347950339687    1.42104933897832    1.43838883548296
O         4.61663752258483    0.79233257041976    1.27620760339355
C         4.62832075340289   -0.59463191769951    0.89310475724200
C         5.63880765534026   -0.81082894236699   -0.24142220042618
C         4.94674519379336   -1.49828648912950    2.10495124621021
O         5.13434483965484   -2.84643824240448    1.63031889868998
C         4.36731422021196   -3.65088203061195    2.54829773894597
O         4.33671025744068   -2.91416221317977    3.78572301799417
C         3.85616634470213   -1.69864987497155    3.17102775674017
C         2.48904360883610   -2.23384608152626    2.67767706131778
C         1.34261729110701   -2.25084420052033    3.69226260355881
O         0.16850359553874   -2.70624365708852    3.03278372832998
C         2.90609572113403   -3.61416420625652    2.09012235550713
C         2.23915254358481   -4.90873428471625    2.54185029847934
C         6.22481311117487   -0.91257609236785    2.72782393196431
O         6.23382397403444    0.00172753066699    3.54961535628519
H         3.72000870736399    3.38247320236724    0.69088612397633
H         4.27759684843927    2.99529365272830    2.47112218015489
H         2.60513557701032    3.37939556501128    1.96571030062069
H         2.59112366343795    1.34702625118892    0.64895509357202
H         2.99892701900929    0.98573321289904    2.38213008014454
H         3.64832619528580   -0.81005709436110    0.45145099705218
H         5.34617808516604   -0.14482275350072   -1.05919252113719
H         5.57842057124521   -1.87394238015256   -0.49555464825019
H         6.61744215171863   -0.43393999410538    0.06862779411747
H         4.81545405848710   -4.64784506840603    2.56840356251919
H         3.81165396333184   -0.92904854680843    3.94358947704731
H         2.19376200120555   -1.59355949215293    1.84014170910135
H         1.12922491670544   -1.24074373654690    4.06018621753745
H         1.46149054849626   -2.87148418248954    4.58510406985736
H        -0.03542617249325   -2.12540919221949    2.28048735473679
H         2.89107099944741   -3.54391885527128    0.99530580209923
H         1.15479765805508   -4.88739813920733    2.39753929687202
H         2.39937019174547   -5.08828216430074    3.61157299119558
H         2.55998253814995   -5.78914236569925    1.97695971009681
H         7.20314929548362   -1.36793708035572    2.50686041930369
