37
 energy: -56.171488873735 gnorm: 0.120849716901 xtb: 6.4.1 (79825abcba525fcdf90b791dcacef51065a7a4e7)
C         2.38049018570857    2.17081158446656    1.62852138689903
C         3.53634460993522    1.42798850646693    0.98415837501973
O         4.17230440839735    0.51185239730862    1.87789691238229
C         4.81192253825142   -0.58147444318058    1.19518198670091
C         5.97174537608160   -0.27812445100151    0.23718099569055
C         5.14976490756049   -1.64601052137195    2.26250700099185
O         5.27011746190228   -2.95902522679837    1.67984925254830
C         4.29001029707751   -3.80553389435775    2.31306634088723
O         4.40248127439446   -3.30631999468139    3.65956169429250
C         4.07668991396234   -1.93957071468041    3.32474942126836
C         2.75948837078534   -2.06883832461341    2.52030910510184
C         1.57217408377491   -1.94877851499877    3.47939009175613
O         0.32341761527924   -2.13402455240352    2.82583430611402
C         2.87231031430802   -3.46611723179690    1.84258213387353
C         1.86180340092354   -4.51929071565273    2.28358590415652
C         6.31396797810149   -1.29337907038719    3.20312730739732
O         6.72674031327892   -0.15270915725318    3.40278817992664
H         2.15136998235716    2.95186854718240    0.89680298230886
H         2.80086073967959    2.56201072795148    2.56111453977480
H         1.60978133502506    1.41714145420282    1.81605197968178
H         4.25857124583756    2.16693136059727    0.62768048983473
H         3.03321588920316    0.84747988595886    0.20394347097984
H         3.94094939702403   -1.01282572243053    0.68803593270291
H         5.57517510683006    0.30355520635228   -0.60086754613729
H         6.39137304448317   -1.24147898659932   -0.06990318856305
H         6.77253455988983    0.30320910520735    0.70268038940939
H         4.56523834897898   -4.85346009793867    2.16722736371633
H         3.93594860420488   -1.15023495129727    4.06519520829325
H         2.54767989979846   -1.30490091545741    1.76521948538519
H         1.62758221203435   -0.92889412885540    3.87684798852587
H         1.57799779565532   -2.64463698623064    4.32333188362076
H         0.02632884005869   -1.26446447990247    2.50880214165043
H         2.87242291744030   -3.34953360610300    0.75162309197085
H         0.85695679227893   -4.09108954712358    2.34709531771454
H         2.11121892293248   -4.71607435731915    3.33300567264329
H         1.81694819688686   -5.31857616882468    1.53774248630824
H         6.66733890724340   -2.15034613507059    3.79815377288872
