37
 energy: -56.185108915711 gnorm: 0.115442331322 xtb: 6.4.1 (79825abcba525fcdf90b791dcacef51065a7a4e7)
C         3.10113138683066    2.70413127220802    2.04350621541987
C         4.12998854353573    1.69799304324193    1.56170950448326
O         3.53630243586447    0.47890094079208    1.11018980531830
C         4.38823333298575   -0.60643308890598    0.70173129859823
C         5.63380924232716   -0.31083581267400   -0.14451867812197
C         4.85686092779655   -1.52202115540168    1.85439943618860
O         4.98557724834642   -2.85648572365111    1.32466476149497
C         4.49239379092174   -3.71536343751173    2.37216178405859
O         4.59263731050238   -2.90605832428641    3.55954986093458
C         3.92165778123777   -1.72946753784773    3.05788916245214
C         2.57047829616063   -2.29848700392869    2.55850448043825
C         1.46503698808483   -2.07094360238573    3.59300407558840
O         0.17641822689952   -2.48654667361045    3.15989929851779
C         2.97199159353951   -3.75713790546146    2.19032572922231
C         2.15135122093912   -4.82621615478765    2.90335027578197
C         6.18457107399848   -1.23822205883634    2.57629146441193
O         6.33591896364727   -0.46701388990842    3.52165122612013
H         3.65517425250162    3.57191248996040    2.41492259763562
H         2.51180669599626    2.30351995389348    2.87518231717570
H         2.48226407332989    3.01528350740436    1.19653156818503
H         4.85144134710398    1.50952448726154    2.36090271383298
H         4.65644854969441    2.17475503288554    0.72840168348542
H         3.69340207993278   -1.21345321124974    0.10962375314942
H         5.46434673641930    0.09820095712481   -1.14547618524489
H         6.05166146123640   -1.31779494438648   -0.24388101661479
H         6.29491939493595    0.24666652784475    0.52482892712281
H         4.95355719083115   -4.70241257020075    2.46288743199380
H         4.01009911097747   -1.03108920579242    3.89189446475867
H         2.18308878790261   -1.67801525453034    1.74390783311979
H         1.43173588595657   -1.00137302642385    3.82989395985867
H         1.64081845886198   -2.59217409031837    4.53847238562739
H        -0.11064129673872   -1.84113338627350    2.49210863411073
H         2.76260576876826   -3.87773868832572    1.12009378503002
H         2.32408160125544   -4.90475712105347    3.98089467074710
H         2.43821593506894   -5.83919601058995    2.59709188877228
H         1.07131145315098   -4.67493543727850    2.81514669461496
H         7.03269072632492   -1.75891254587458    2.10417439936414
