37
 energy: -56.183421813798 gnorm: 0.114965096311 xtb: 6.4.1 (79825abcba525fcdf90b791dcacef51065a7a4e7)
C         3.28200688967240    2.75418013617086    1.65957614078800
C         3.99156709910119    1.74552098045746    0.77520049574709
O         4.16533979316466    0.56932624956907    1.56822496544835
C         4.62344285940159   -0.65777925869268    0.97246640868632
C         5.83630227091203   -0.51270671959500    0.04354114515918
C         4.92109580219072   -1.54355728663839    2.20265225482375
O         5.18841570900651   -2.89668996698794    1.78366011763420
C         4.31380454060717   -3.67035029186691    2.62903332727567
O         4.29977360922096   -2.92623190147685    3.86232360949610
C         3.80835519410468   -1.71337893787625    3.25098206229106
C         2.46005848828224   -2.20186994502412    2.66589512348743
C         1.43449784098217   -2.42199430032596    3.78112447852267
O         0.13628738376789   -2.68416611467342    3.26463680530691
C         2.90872730893570   -3.55085195608749    2.03077719122342
C         1.89959114769509   -4.69384018392492    2.03302090208803
C         6.17103068844797   -1.03641313988132    2.94086081108520
O         6.20829330544320    0.04249345063430    3.52903202448194
H         3.25837058867775    3.78968667472390    1.30584544878432
H         3.89925956941145    2.82754934853976    2.56129352938263
H         2.28023926624154    2.41640828659646    1.94162281451542
H         4.95272887287127    2.00591997849569    0.32455125048420
H         3.39198455476742    1.45574523827156   -0.09393404775615
H         3.76353900875489   -1.07316193351109    0.43406335380556
H         5.49945626033540   -0.06550950545803   -0.89693425532230
H         6.22485598885982   -1.52655311456827   -0.09639290038588
H         6.54737468783543    0.18671684563001    0.49196550414555
H         4.66464209915846   -4.70443703313706    2.68143970212046
H         3.72901296349906   -0.87387978203969    3.94384928135437
H         2.04716530702409   -1.58495483129631    1.86118494281974
H         1.39181197130489   -1.46229807587102    4.30873045681140
H         1.80696052601964   -3.22790780482178    4.42008116060274
H         0.13142595316071   -3.63786025027703    3.07662160700094
H         2.95708933599637   -3.29166453783311    0.96575776513235
H         1.12062214521782   -4.37797151514883    1.33263481740296
H         1.45654017685941   -5.01375055147005    2.98358754301601
H         2.41663820734509   -5.50706440346921    1.51487002217740
H         7.02599813168866   -1.72617004269325    2.85970577008686
