37
 energy: -56.181749673924 gnorm: 0.112186180526 xtb: 6.4.1 (79825abcba525fcdf90b791dcacef51065a7a4e7)
C         2.65602534288566    2.35902013414101    1.83394400574030
C         3.66047322766311    1.57197610401958    1.01258208409751
O         4.20572853816345    0.50530842811478    1.79196358437477
C         4.71999314342484   -0.58251705476389    1.00282339776004
C         5.93858656393158   -0.17963729433791    0.16157783749085
C         5.03887855605708   -1.66268476906100    2.06022917103804
O         5.09708791445651   -2.97550647542154    1.46769797651055
C         4.30578679516102   -3.80315284779948    2.34348040936809
O         4.42703018515110   -3.16262765182462    3.62798088893541
C         3.95785625173320   -1.89035415908811    3.13054866637140
C         2.58284373270845   -2.20222618098272    2.48950999516693
C         1.39358126035725   -1.92774110590673    3.41378190904637
O         0.16747735993859   -2.01288392609388    2.69945433411793
C         2.79712808407586   -3.69481392481197    2.10131547379483
C         2.17705008358183   -4.70249906320561    3.06301025575262
C         6.39250839696418   -1.32192996572435    2.70525369661492
O         6.66950571363255   -0.30876485446608    3.34411379588460
H         2.26495363392494    3.22350645581123    1.28833958210050
H         3.02153554616687    2.53592075960022    2.85109031777461
H         1.75803919245965    1.77076210796597    2.04549042717127
H         4.44219460025538    2.19542559541026    0.57105432349076
H         3.10535603378536    1.11352508719014    0.18763867382368
H         3.92186203725465   -0.91428330850875    0.32845471692736
H         5.72381772981883    0.42376386038396   -0.72596142760094
H         6.43458868329092   -1.14482100424653    0.01720906621323
H         6.52902449340378    0.46741165898119    0.81626281098573
H         4.58474311566572   -4.85830079573368    2.28011647446042
H         3.97540220558560   -1.07514141650740    3.85597220804111
H         2.52902877911141   -1.60928019424106    1.57073771168908
H         1.49827859508197   -0.86100829650708    3.64253192792960
H         1.30245783015925   -2.54715368148650    4.31072964314246
H        -0.42364748450004   -1.25347147665845    2.83645798208435
H         2.50097964237987   -3.90326829156071    1.06563876489881
H         1.09733246439098   -4.53737020475630    3.12663974770668
H         2.71847832943033   -4.71362219740901    4.01639657818539
H         2.32147884788697   -5.70320190246399    2.64481677675484
H         7.07440227877124   -2.16174416071127    2.49776180507685
