37
 energy: -56.178728669641 gnorm: 0.114949475439 xtb: 6.4.1 (79825abcba525fcdf90b791dcacef51065a7a4e7)
C         2.99594364296686    2.69731332752839    1.20575884219430
C         3.82651571888942    1.57494007647657    1.80024817938507
O         3.50647435721185    0.34503597592398    1.14646823472590
C         4.48715711621254   -0.64569096199675    0.78968255421812
C         5.64715397306987   -0.08034946772309   -0.04084282691766
C         4.95637574180948   -1.56672148307921    1.93776522230326
O         5.17276831138269   -2.92670211524748    1.51160877230914
C         4.45492038119279   -3.75243130360558    2.45023356324238
O         4.53714604893495   -2.98847366673796    3.66864303103751
C         3.98128238399163   -1.77879683356989    3.10833918784092
C         2.59254566083752   -2.30518029147411    2.66881110935960
C         1.56117364855183   -2.26256123829014    3.79948402187078
O         0.24985794095859   -2.60349890612932    3.36930199714296
C         2.95001018998947   -3.73445665316798    2.16500646665791
C         2.23284799179007   -4.82326888726761    2.95554375550923
C         6.24738660423819   -1.10250133372366    2.63222535069704
O         6.33943104311348    0.09907244542178    2.87537467279376
H         1.94742497025416    2.39426393318431    1.12373734511805
H         3.33308945851857    2.92678751640754    0.18931776901666
H         3.18367770409560    3.66824480131078    1.67397515385368
H         3.41344392597533    1.54419039288662    2.81175719268023
H         4.89077763352143    1.82545470609699    1.74148549039447
H         3.88657781871648   -1.26237478719630    0.11081525289391
H         5.15386887223797    0.74523432120874   -0.56336151985754
H         6.13999359619509   -0.80422248135121   -0.69777280542560
H         6.34307644751391    0.34572197161131    0.68720713734500
H         4.84181441822201   -4.75452126941479    2.65345143452332
H         3.98925107417760   -1.05913996984179    3.92879606638233
H         2.10906780363128   -1.75297209698735    1.85644495823953
H         1.59465883127226   -1.23784896979992    4.18684753681973
H         1.64838933226712   -2.93168131322996    4.66039191611796
H         0.06289269782348   -2.51110133487553    2.41987451989321
H         2.77348527824065   -3.89945963585317    1.09477456183215
H         1.16357631917378   -4.70791520273449    2.75440200555130
H         2.39249109255081   -4.76774017988741    4.03889244692481
H         2.61848639404490   -5.77023483949882    2.56606958262954
H         7.00011382836082   -1.83394231071863    2.96646458632890
