37
 energy: -56.171313460148 gnorm: 0.122573048514 xtb: 6.4.1 (79825abcba525fcdf90b791dcacef51065a7a4e7)
C         5.78406832957131    2.97711027929913    1.05374965586193
C         4.50836777530375    2.18520649066146    1.27389904671504
O         4.88008422164158    0.80522752030536    1.27196594474132
C         3.83445233449102   -0.18167443318983    1.32900200452081
C         3.68847319524634   -0.76390769540336   -0.08332609689650
C         4.40163381628645   -1.16013086512119    2.38137332074105
O         5.14470858996094   -2.30411650651497    1.91541288546196
C         4.63461677241779   -3.47480589348588    2.58432509943759
O         4.14067016025307   -3.04446249378194    3.86718724092820
C         3.43454828849458   -1.91452015249252    3.30963450584762
C         2.43123906431199   -2.65402423107696    2.39020069609139
C         1.21888715654657   -2.99537950557277    3.26062893278090
O         0.06875837038627   -3.55097357934737    2.63663937697757
C         3.30630853694663   -3.85391245707169    1.92227695864206
C         2.93382431958111   -5.23179627589117    2.45844354898738
C         5.36332162560550   -0.26385070883277    3.17907171962297
O         4.98730864423063    0.47303102728604    4.08846319877271
H         6.42910564205622    2.41200293707686    0.37364787874617
H         6.36887091890187    2.99142934642282    1.97964330917354
H         5.57195083133178    4.00065674815762    0.73042734917813
H         3.67820214138677    2.27972392525586    0.56918930920372
H         4.07583703826644    2.38284990874320    2.26016387227254
H         2.96499365902886    0.32302359095011    1.76623965218436
H         4.11658236199270    0.02914798978996   -0.70439758232545
H         2.63262717248082   -0.95609503889203   -0.29941228530448
H         4.16082097870851   -1.75009802509871   -0.09808813893624
H         5.40403537194568   -4.23432904988201    2.74646209314668
H         3.08330155192793   -1.31240752293276    4.14939942364335
H         2.12614508762621   -2.04748237345389    1.53133624061735
H         0.78365441473837   -2.19301851409963    3.86725591074500
H         1.53019047003151   -3.68188567669266    4.05327651822359
H         0.42263075990763   -4.04201965894706    1.87601204905138
H         3.53007064704267   -3.86361740707549    0.84821005722712
H         1.88595393429907   -5.41931947543071    2.71124602751400
H         3.41499266590535   -5.35630788999236    3.43578055966502
H         3.42380763744175   -6.01314187093409    1.86974410484406
H         6.40066002182133   -0.55065147575932    2.94456280089533
