37
 energy: -56.185500673705 gnorm: 0.108109384653 xtb: 6.4.1 (79825abcba525fcdf90b791dcacef51065a7a4e7)
C         2.66896621477777    1.89078251348921    2.05337575014864
C         3.99743941969231    1.41362718990867    1.49617650288205
O         3.63417571940312    0.20432854471664    0.82673266202463
C         4.58212915400486   -0.86149552338888    0.63705424695557
C         5.87342064040933   -0.43260423722332   -0.07258980690744
C         5.02774443426841   -1.58487712201004    1.92728803998656
O         5.19916679368999   -2.97001673083458    1.56675368160038
C         4.28782324338028   -3.64894041464877    2.45369586121202
O         4.46644506636135   -2.93571813636365    3.69237346396759
C         4.04981903108268   -1.68100143846385    3.11069347917510
C         2.59755712591215   -2.01501311166367    2.68852555364776
C         1.65185816547569   -1.98966864865399    3.89226017061317
O         0.28406886078909   -2.16359648596406    3.54621754607786
C         2.84210105769097   -3.39714238455098    2.01447220735799
C         1.82517415021296   -4.46856525582490    2.39222295887223
C         6.31350410878849   -0.98112469046774    2.51617621922420
O         6.40427868817463   -0.05421326038983    3.31865267670232
H         2.84972389312635    2.56530690780734    2.89616953961020
H         2.13896927576423    1.06656449303011    2.54250360539522
H         1.99751203258676    2.37852062973187    1.34032643265034
H         4.65419741921268    1.26781177205580    2.35764682918100
H         4.42425939705285    2.14142522433985    0.79832352090943
H         4.03005849937152   -1.59253567948137    0.03484704381957
H         5.78509185675971    0.32034450650947   -0.86202680173983
H         6.29375274116386   -1.33994862746511   -0.51810873918508
H         6.52101326647205    0.05889887632687    0.65881308288039
H         4.67310174283351   -4.66929832537642    2.52852254380354
H         4.22144310870977   -0.88735417707861    3.83993157771362
H         2.18700815271283   -1.32017458888951    1.94874688059296
H         1.72194631949839   -1.00461516072504    4.36761716677298
H         1.91091782307310   -2.82993695185891    4.54289674062196
H         0.26189253351075   -1.80715831573519    2.64213464342840
H         2.91945166168321   -3.23830871868287    0.93161850612988
H         2.03206654355016   -5.06798555562186    3.28384913285980
H         1.60736221697209   -5.21051080749265    1.61486299489945
H         0.91621870779965   -3.89213743115078    2.58890187998818
H         7.25827580361703   -1.47465184009497    2.23840395038863
