37
 energy: -56.173297672940 gnorm: 0.135461701372 xtb: 6.4.1 (79825abcba525fcdf90b791dcacef51065a7a4e7)
C         3.08600016802866    2.44711473524570    1.94718544552417
C         3.91753554629933    1.63216717404943    0.97384138658367
O         4.20032956600956    0.46635572988610    1.75064897394752
C         4.70267750958800   -0.64087399991562    0.98106241533342
C         5.92568721016842   -0.26194320795294    0.13511037373765
C         5.02396599732782   -1.70933746661206    2.04957385803522
O         4.98146813817216   -3.05417521627088    1.53228504361010
C         4.20821115409967   -3.77239949205876    2.51431273020277
O         4.26890272383303   -2.99836321493976    3.72761332777105
C         3.90050604981148   -1.75101805395113    3.09939617312518
C         2.54803375350479   -2.12698858443984    2.44493529741017
C         1.39054507538899   -1.89492101052127    3.41978424777512
O         0.16087164142198   -2.38284287054466    2.89951559787460
C         2.74463668121418   -3.62918429936913    2.08551037808315
C         1.89169854391367   -4.61186045299696    2.88026003998802
C         6.34005661230272   -1.39177107860729    2.77864265609161
O         6.51003661026695   -0.25039475981642    3.20260043461087
H         2.07228073334438    2.04089391699967    1.87427848396546
H         3.06960694217289    3.43504449591481    1.47474051522359
H         3.54711250514825    2.49998653971539    2.93802272078822
H         4.86774545689726    2.16063536630720    0.86182873150445
H         3.52472467614347    1.38649755942784   -0.01823226167982
H         3.89750175041945   -1.02759031269985    0.34545426037449
H         6.63375792744835    0.26496152173184    0.78237525433975
H         5.55494666189984    0.41057001268103   -0.64509309485883
H         6.31005804252399   -1.21974825810209   -0.22651133710784
H         4.56733695728479   -4.80241012952599    2.58694572119187
H         3.76497515246769   -1.02614378494056    3.90395049467658
H         2.48039794761342   -1.51826245017127    1.53746551802340
H         1.25656675719669   -0.86530026258893    3.77069436570706
H         1.71078019669776   -2.47157701022313    4.29237120383595
H        -0.02774321036005   -1.94401550120550    2.05289831191405
H         2.64841575454214   -3.83107896994336    1.01137656646526
H         1.74242300563841   -4.41956610930257    3.94695872486162
H         2.34733375893280   -5.60910041942893    2.89133927458154
H         0.87119779583546   -4.81007971049211    2.53902849075722
H         7.14501911141692   -2.12383083179859    2.60705032796617
