37
 energy: -56.173433014135 gnorm: 0.131792456656 xtb: 6.4.1 (79825abcba525fcdf90b791dcacef51065a7a4e7)
C         3.02349179446551    2.47856047570101    1.98955732769549
C         3.28952960423118    1.25948330354013    1.12580736324211
O         4.56040989356093    0.72682730943753    1.50483202463158
C         4.75922484960081   -0.59270911090686    0.96643547079992
C         5.97143211069163   -0.42202819846130    0.04101787729652
C         5.02760892267418   -1.54348226688415    2.15410442985089
O         5.17377810332038   -2.86665247835774    1.60107862118921
C         4.40639883616559   -3.73583194534176    2.45770395654291
O         4.36171047588040   -3.04480675364763    3.72079583835188
C         3.89062020702240   -1.80097636222417    3.15758827757485
C         2.54314693193888   -2.25414360867663    2.54292627865135
C         1.28040114268058   -2.09989946864513    3.39477583317335
O         0.20480601584262   -1.67723751051715    2.56694979512002
C         2.94164641667344   -3.66382718232877    2.01526984490604
C         2.16887635191824   -4.88193158490625    2.50906231038852
C         6.28548475729308   -1.13490553465404    2.93851354276257
O         6.36035943054420   -0.12008130346394    3.62836777136956
H         2.09089735125254    2.95613783868205    1.67309984727583
H         3.87782996932296    3.15832959873455    2.07615053465767
H         2.84550201960321    2.16200678699201    3.02168712743167
H         3.30724460910992    1.52769840903882    0.06633996175213
H         2.56447491168686    0.43906124995048    1.13401783808816
H         3.95691376414663   -0.93585093322414    0.30280467071587
H         5.65965039376221   -0.00425289357701   -0.92137524360643
H         6.33459865081849   -1.42202066343831   -0.21698439736813
H         6.65802188917943    0.27067604576529    0.53564603809053
H         4.81069634786961   -4.74883503906228    2.53211538405627
H         3.70790530711217   -1.10681568700037    3.97970457300279
H         2.33402669033439   -1.48185390033140    1.79562390428982
H         1.43308316900281   -1.31765177388659    4.14709473281947
H         1.16145717964552   -3.01616188076965    3.98027236215848
H        -0.55342230618103   -2.01624236011679    3.07199570975471
H         2.91365389912373   -3.57635807584564    0.92194969748752
H         1.10938100501744   -4.65901880150800    2.35130969133117
H         2.32116569767226   -5.02768561239940    3.58506299151574
H         2.42115204081790   -5.75936974915083    1.90606076112510
H         7.14778785986418   -1.81774702203091    2.99751261082220
