37
 energy: -56.176880715074 gnorm: 0.128376193962 xtb: 6.4.1 (79825abcba525fcdf90b791dcacef51065a7a4e7)
C         2.90182711420984    2.38919617242101    1.51675227439487
C         3.46203392954983    1.28480352021014    0.63955534050134
O         4.10504541741149    0.36832812280963    1.52788404014960
C         4.84716415622335   -0.71783637364635    0.94471933592796
C         6.07424087891777   -0.13006990615529    0.23493808925813
C         5.11401466782837   -1.64671514605397    2.14992977899362
O         5.16919946627551   -2.97289694668516    1.58763194218351
C         4.29741137072193   -3.70177520460714    2.47469048680548
O         4.39468508433360   -3.02404866817321    3.74202569765160
C         3.95563633768457   -1.78041614468923    3.15307986421830
C         2.53959435726530   -2.08203765967955    2.60289467095447
C         1.54924073781402   -2.08302223668067    3.77044107888524
O         0.23197634659156   -2.16602319121248    3.24245496687091
C         2.85087489638330   -3.49070634644207    2.01707224631571
C         1.84442985359873   -4.60171031511397    2.29549903057146
C         6.39316679371021   -1.25095294034076    2.90598953422078
O         6.40343120354579   -0.36272039572541    3.75587828476363
H         2.12196262480240    3.02834640833354    1.09101030654176
H         3.73431631806474    2.97465685907352    1.92132077376676
H         2.39098109100460    1.94183466793254    2.37470480561167
H         4.09468197548616    1.74795616600915   -0.12200254468045
H         2.66395649636497    0.80091369188798    0.06702839169302
H         4.13116310825320   -1.20036479066907    0.26917210196100
H         5.75472385483653    0.38086143898028   -0.67873723082249
H         6.92769829427895   -0.77839016475319    0.01193291540632
H         6.44852679274549    0.68579728703061    0.85957597271966
H         4.45667692221445   -4.78327138299250    2.46167839837825
H         3.93203406882853   -0.96607401143069    3.87930904445099
H         2.20893478100373   -1.36696682453617    1.84265691331755
H         1.64597999544836   -1.14493232053965    4.32886369306451
H         1.55605734716002   -2.88223598100539    4.51723528508750
H        -0.43032835580499   -1.97340180475685    3.92740411439695
H         2.90795760304583   -3.35009395149418    0.93044761121389
H         0.81171360475880   -4.32117839940757    2.06767150624891
H         2.05847055021970   -4.91300297833161    3.32481783887901
H         2.10034402958002   -5.51663659900885    1.75275649944449
H         7.28705346184773   -1.78120988892052    2.54114130461917
