37
 energy: -56.174493489818 gnorm: 0.130352677521 xtb: 6.4.1 (79825abcba525fcdf90b791dcacef51065a7a4e7)
C         3.88272772411247    2.94889635422612    1.63437197916756
C         3.44651212225723    1.68989662549405    0.90799404478245
O         4.36656152224220    0.75268757630971    1.47161369921451
C         4.42940016959608   -0.54845260295070    0.86033621149745
C         5.53161443513949   -0.55918558207168   -0.20736443700395
C         4.80878363214960   -1.44800196953083    2.05759823279936
O         5.09278100818372   -2.80013584935077    1.64642688599184
C         4.42068668156919   -3.68059950722651    2.56904480483432
O         4.42259320361476   -2.89131778403235    3.77401148503122
C         3.77490411153341   -1.75940632346927    3.15311040786772
C         2.48448640794386   -2.36771327625710    2.55008552029962
C         1.45315082624694   -2.39976379122302    3.68114059494748
O         0.19121771352044   -2.92676596206758    3.29302012098053
C         2.96248936393647   -3.78311440335406    2.11124181924313
C         2.14307549334283   -4.95352041769301    2.64368298614626
C         6.04317775704572   -0.90253338288918    2.79463246025925
O         6.11153032788972   -0.11277504289287    3.73430421170717
H         4.80385865903055    3.41062864747706    1.26521217551872
H         4.11426761421886    2.84206413886461    2.69947963511303
H         3.13420785062801    3.72954648914738    1.46859535918977
H         3.59664906632807    1.70815256922534   -0.17452614408053
H         2.40664136300580    1.43252440704242    1.13447232359961
H         3.44428172053084   -0.71214696524086    0.40800774176225
H         5.12206111340745    0.16375813819143   -0.91979901326570
H         5.76548483891170   -1.59869548623123   -0.45868860355806
H         6.46915333819184   -0.15334931168361    0.18278866268252
H         5.08302766452423   -4.52418951302470    2.78077372895484
H         3.66582842041543   -1.03220190216771    3.95958126087756
H         2.05167852571751   -1.86749374474532    1.67768579974364
H         1.40516671099935   -1.41205585921413    4.15372663105006
H         1.86759734501640   -3.10685639377366    4.40553331305756
H        -0.26563999581382   -2.22905745154188    2.79363077349350
H         2.99194637762352   -3.83728177683776    1.01580511990575
H         1.23619429234270   -4.86214875107227    2.03843584712547
H         2.01985950407642   -5.02396880844721    3.73091276577184
H         2.74685782777428   -5.82012130588132    2.35802335817874
H         6.96946270621081   -1.38405018464503    2.44326680813933
