37
 energy: -56.173755168231 gnorm: 0.128233764616 xtb: 6.4.1 (79825abcba525fcdf90b791dcacef51065a7a4e7)
C         2.57038782127756    1.84425419544913    2.50356080232490
C         3.83790038568271    1.40778941455051    1.79229456835353
O         3.48433066077989    0.25432426733228    1.02611874322092
C         4.51590046000750   -0.69358499025103    0.69762772560375
C         5.71507128173419   -0.21631512936951   -0.13254029165162
C         5.02772141836512   -1.59808615275651    1.84063871965348
O         5.15255670978728   -2.95183263260364    1.36129643947049
C         4.44954056550235   -3.73893149428705    2.34333235693380
O         4.51456207085062   -3.03647632485017    3.59921567783301
C         4.03148590242202   -1.81834226716400    2.99173753817566
C         2.65847890209524   -2.22242345289106    2.39977099418210
C         1.50555773378453   -1.88642806052520    3.34942660031773
O         0.46214730704488   -1.10554092094657    2.78166439061880
C         2.92716816130875   -3.73935346457341    2.17358435576226
C         2.20858983556945   -4.66561553106894    3.14850317581486
C         6.35532362345511   -1.15300809551582    2.47614023656119
O         6.36076128105106   -0.37017487313580    3.42404101863547
H         2.68627070901032    2.74411132099184    3.11575862789715
H         2.08458371664699    1.01262846741078    3.02497347949677
H         1.80744719798264    2.10160737795727    1.76270355265545
H         4.61100838712276    1.10387305159277    2.50269107428175
H         4.11351319948863    2.16526271908380    1.05125757146679
H         4.11520012243529   -1.40028418631909   -0.03849097052668
H         5.45609669774528    0.19834564416764   -1.11179161851431
H         6.43465380339609   -1.01755312513893   -0.32915844628823
H         6.20097830338890    0.63024522573236    0.36054351133963
H         4.97378935243988   -4.68666024783306    2.49213502984831
H         3.99202103838743   -1.09980524573058    3.81226546733758
H         2.44782009163140   -1.72333959014467    1.44837113919537
H         1.78682372474766   -1.37174569598156    4.27527674991237
H         0.95195660335932   -2.78319530709914    3.64238558515322
H         0.57530399437310   -0.82367327448838    1.85827279148565
H         2.68089374857409   -4.03324206577701    1.14559516002222
H         2.51570216076015   -4.23024229776482    4.10413833732410
H         2.40686485833698   -5.73362048966256    2.99928462542097
H         1.13129018284991   -4.49096301301251    3.07056996372046
H         7.23015369260286   -1.76144085032223    2.19721016739770
