37
 energy: -56.177267258439 gnorm: 0.121448903980 xtb: 6.4.1 (79825abcba525fcdf90b791dcacef51065a7a4e7)
C         2.62953438305377    2.48696653962378    1.72220421610249
C         3.85442209671802    1.74691467696852    1.21726600719544
O         3.67146862929651    0.38929231596407    1.62458450040969
C         4.38901902371341   -0.66164692508035    0.95285334850555
C         5.55321393207025   -0.25600414205565    0.03902607393393
C         4.93542806450702   -1.59040862144627    2.05982944673623
O         5.17815842127407   -2.92815474010644    1.58076815693984
C         4.44258763132628   -3.76179134146497    2.49844811026356
O         4.49130858537271   -3.11995462993788    3.78708532869624
C         3.97896688511810   -1.89144497287294    3.22627086956257
C         2.58585450878304   -2.29801623707852    2.68516835497130
C         1.44930651705486   -2.11235268472966    3.69400610012567
O         0.20619443998998   -1.76157337504936    3.10031408548589
C         2.95644229068247   -3.70535244665715    2.13154351952327
C         2.17525454980831   -4.84918818844153    2.76885697563194
C         6.28561469692669   -1.24841539728729    2.71138218944128
O         7.04732069695082   -0.32880837301586    2.41897801872874
H         2.41422539878413    2.12195562146373    2.73134590106376
H         1.71309980767966    2.23368098287513    1.17863061844545
H         2.71937917292021    3.57732511141318    1.73719149953245
H         4.73466497810983    2.19352090070898    1.68677605657378
H         3.97762014339149    1.79452750018390    0.13033485904854
H         3.68780576850457   -1.17236844136193    0.28254092437375
H         5.30399823672958    0.29854646561236   -0.87108914826541
H         6.15571951113107   -1.14160494198030   -0.18711169084783
H         6.28356022362996    0.40242949529963    0.51752492226816
H         4.93635666042064   -4.73357091807592    2.58214648288943
H         3.99191258404876   -1.04584908329909    3.91613971311011
H         2.43812617126666   -1.58663467543541    1.86618353510150
H         1.85689748712633   -1.28693308827953    4.28878260371335
H         1.34043186961103   -3.00027969596103    4.32346825374014
H         0.35125805542188   -1.73117262099910    2.13961736222304
H         2.95674704626501   -3.76659256967255    1.03608337143823
H         1.10396459761187   -4.80458954320089    2.55101485272414
H         2.47205617364776   -4.73205392861474    3.81785750799880
H         2.58349879725329   -5.79756362325720    2.40681789150147
H         6.40473781995442   -1.88337806970813    3.60354369216533
