37
 energy: -56.180919788903 gnorm: 0.127828996877 xtb: 6.4.1 (79825abcba525fcdf90b791dcacef51065a7a4e7)
C         3.81180789543343    2.89901039189626    1.06764668597052
C         3.28836635231924    1.48362411840036    0.90739715410652
O         4.03825403369369    0.60289662853216    1.74674592427961
C         4.62792473995993   -0.54940497108753    1.11820469289291
C         5.85907848029639   -0.21979505099404    0.26345683987705
C         4.90460270616114   -1.55418845829448    2.25856281347252
O         5.26951677692509   -2.86621171379356    1.78589476030449
C         4.31839635069058   -3.68901526114775    2.49053304821027
O         4.25647033028435   -3.07957570797597    3.79424412416842
C         3.81272130357310   -1.79100441537803    3.31579487399861
C         2.48452183902610   -2.20309336196227    2.63394219078983
C         1.44402544132185   -2.43767681643966    3.73226078790809
O         0.17500543821830   -2.62281046068635    3.11894379229707
C         2.91470435450780   -3.50952165059638    1.90413462092739
C         2.03640816584325   -4.74774843757736    2.04616683556491
C         6.21275086813975   -1.08504993889963    2.91669784272655
O         6.22942643773723   -0.30782153907723    3.86906922642204
H         3.11414916367964    3.68312660559029    0.75717619422699
H         4.75640787900132    2.96343572084900    0.51713927591907
H         3.93096000379278    3.00596255989295    2.15002486831662
H         3.30365292209939    1.06024242180121   -0.10019333638416
H         2.29984516527313    1.33526372567863    1.35425185238269
H         3.83059730334074   -1.02858962760890    0.53811308712378
H         5.57460304887290    0.12599961336682   -0.73526451022539
H         6.59382881776181   -1.00625333250816    0.06329355401558
H         6.50200825431664    0.50123379143920    0.77596090724850
H         4.59639210797954   -4.74626012199147    2.50150919144885
H         3.73209522645819   -1.08425162912173    4.14351398812491
H         2.08476871124840   -1.46797500638216    1.92795214134994
H         1.45780202502569   -1.57757011354910    4.41140264299251
H         1.68211150894733   -3.37306400722540    4.24690289643823
H        -0.46024910232586   -2.73289472156050    3.84643192081356
H         3.06774793758885   -3.36740030619399    0.82702619381006
H         1.09546862117232   -4.37516199020456    1.63033212594000
H         1.82348056607927   -5.07044916980898    3.07219793774251
H         2.41365700146123   -5.48200922055926    1.32804703656243
H         7.08947211038756   -1.53937777623876    2.42857272023272
