37
 energy: -56.179245125703 gnorm: 0.127116682197 xtb: 6.4.1 (79825abcba525fcdf90b791dcacef51065a7a4e7)
C         2.81151437972939    2.41536944349600    1.46745666488332
C         3.61724421202757    1.21606827467853    1.93163917380723
O         3.42621470541679    0.06989994939460    1.09957866416225
C         4.45898074966404   -0.86841890464767    0.74811513050175
C         5.42126759113339   -0.21810747823673   -0.25491787108412
C         5.04534163295799   -1.57505585471278    1.99045257659317
O         5.31073136835723   -2.95239278271220    1.65804667015768
C         4.54584349809224   -3.70031036762434    2.62433684248035
O         4.64993723692249   -2.95838900802302    3.85463402825921
C         4.12121396495059   -1.78313025769745    3.20235998466172
C         2.72090813215299   -2.17807840386435    2.67131030352236
C         1.62931214715571   -2.06262169663224    3.73857496357717
O         0.30738250166140   -2.15258669020261    3.22354847325771
C         3.06475785144443   -3.63389224206952    2.23910153973743
C         2.15026760868509   -4.76511406619663    2.69607824429347
C         6.25375105529477   -0.91517346199450    2.67513219646921
O         6.42548643893150    0.30118269065653    2.62657310364165
H         1.75649721153614    2.22924484021682    1.69163131730223
H         2.83113501515800    2.67805982066405    0.40440118465204
H         3.06446165025454    3.35882785945116    1.96049055203833
H         3.39223873667634    0.97764923517108    2.97435353091670
H         4.70210076422114    1.36404794291941    1.93887377304837
H         3.89617712118607   -1.67831046724432    0.26938452855860
H         5.21809773248972    0.83797247010277   -0.45829364995356
H         5.29700697863011   -0.66784121092814   -1.24524049574287
H         6.47509965214798   -0.19721744174133    0.03646382708713
H         5.00350826107696   -4.69267083029617    2.65487359607945
H         4.14730782592468   -0.96866274978346    3.92836329830912
H         2.41311910306594   -1.48212440845732    1.88420327535295
H         1.73090142005108   -1.05374008125544    4.15456114600275
H         1.66403457421740   -2.80790583331591    4.53847281976277
H         0.24969225582257   -1.66007405698183    2.38748089577013
H         3.06990096167876   -3.69750620644893    1.14378870894756
H         1.11546064467001   -4.69435519714282    2.34783390465495
H         2.08814085577404   -4.98923078213336    3.76758452681461
H         2.55057339977691   -5.69012337978645    2.27032635321948
H         6.84343191804411   -1.67130618200919    3.21722061195322
