37
 energy: -56.179289721764 gnorm: 0.121103318588 xtb: 6.4.1 (79825abcba525fcdf90b791dcacef51065a7a4e7)
C         3.71056566075411    2.67877234556740    0.71271204050313
C         3.11728369747383    1.50221383179785    1.46551735283878
O         4.06820057718619    0.62597284072846    2.07418607992328
C         4.57302780237517   -0.44662410207720    1.25855143370098
C         5.70001670058669   -0.01529238558852    0.31048755933365
C         4.97750301808465   -1.51274305713976    2.30083132702478
O         5.19287916549726   -2.81669003550664    1.72522923416857
C         4.29355310577817   -3.68460647318776    2.44361948168135
O         4.21316767406906   -3.09459548020719    3.75523649179841
C         3.79326620546180   -1.81424419766338    3.23501903401098
C         2.47794269767669   -2.15475967589101    2.49149534113087
C         1.45234649150885   -2.20647879207849    3.62703197751792
O         0.17023455410339   -2.58481446032209    3.14340497777945
C         2.85679824950793   -3.55605031281284    1.92821566889025
C         2.04605955655793   -4.77267936028009    2.36099674375896
C         6.20378417732420   -0.95991639597540    3.04588262692800
O         7.32370825988386   -1.46665967878588    3.06471304620181
H         3.00301105983140    3.13781675903697    0.01514298919546
H         4.60215037844557    2.31076149994963    0.19394150439417
H         4.10946377585148    3.42907190650185    1.40199382749548
H         2.51052194223539    0.85354026046594    0.82850313996002
H         2.46004212605940    1.88909552298018    2.25115094271919
H         3.78864884060916   -0.85675895764052    0.61171738415529
H         6.57020886927217    0.41647977923798    0.81475231557957
H         5.35304745872855    0.58893007111312   -0.53388652969997
H         5.94894208591341   -0.96627149521875   -0.16865396601835
H         4.73252551327450   -4.68574871602981    2.42997228715979
H         3.60212517482102   -1.06282044501687    4.00309875647163
H         2.07226015346366   -1.52545656091325    1.69273206551728
H         1.18265989960601   -1.24977841603307    4.08876840510004
H         1.72204160583028   -2.91373682594380    4.41667828440962
H        -0.09959815283094   -1.90016936472163    2.50830084763334
H         3.00168785458577   -3.47206244231980    0.84390186658760
H         1.92446420801147   -4.75788610950002    3.44824194250132
H         2.56664310176598   -5.64257486961833    1.94327874299440
H         1.09495578768375   -4.76460499908417    1.82017509740033
H         5.88593814586195   -0.13652564368077    3.70491343641008
