37
 energy: -56.174530246561 gnorm: 0.121735516215 xtb: 6.4.1 (79825abcba525fcdf90b791dcacef51065a7a4e7)
C         3.57787962354067    2.67074627778307    1.15149033971846
C         4.01254021448440    1.64871318602615    2.18566044077403
O         5.06754281792741    0.81470253612801    1.70201330112839
C         4.58365736236032   -0.40851438444867    1.11877248301622
C         5.44649188917572   -0.70635706646807   -0.11483298666157
C         4.85383912411270   -1.38786283011029    2.28257471020163
O         5.30653751586826   -2.68297871526346    1.84017060603315
C         4.32294862463518   -3.58745803541799    2.38111506889524
O         4.01604146969060   -3.05590345919258    3.68425424113484
C         3.64326747068001   -1.76545810005621    3.15318628255173
C         2.43687676549812   -2.20016142123176    2.28456168166251
C         1.38769642492634   -2.48426591761925    3.36274123399669
O         0.08857320340963   -2.66082853939174    2.81324285540786
C         3.01787682438543   -3.46593422665502    1.58836551453674
C         2.27533280149361   -4.77443876331634    1.83580678668679
C         5.93479587054215   -0.84482973939366    3.23185434370264
O         5.74311441138745   -0.47072509068664    4.38713665852192
H         4.39770485674836    3.15514442407142    0.61185815718570
H         3.04295178110746    3.49689633015402    1.63191354413723
H         2.93912080233228    2.23223173936720    0.37891627299844
H         3.18494062124446    1.07123779134307    2.60557164607564
H         4.34019108437984    2.28870000415631    3.01144845537095
H         3.53014705929058   -0.22066337219580    0.88068999516093
H         5.06852047179386   -0.13170570039977   -0.96621890209206
H         5.41787627436236   -1.75712283838285   -0.42063108045860
H         6.47792046801572   -0.44873416204113    0.14146222667595
H         4.95387066950732   -4.48026160871287    2.37829229706023
H         3.40242613860880   -1.09603234506420    3.98082365104081
H         2.15409029641559   -1.33610185495624    1.67459742404847
H         1.33355190591338   -1.63089333989074    4.04832901907764
H         1.62214642784055   -3.40514784364427    3.90449795711680
H        -0.27345936464516   -3.56035168182742    2.88177305042758
H         3.16648065979437   -3.34991258204447    0.50751434294862
H         2.30577408181255   -4.97085233066308    2.91172566463553
H         2.86618052773481   -5.53294852652658    1.30876252128768
H         1.24547053109527   -4.69086063367873    1.47587619849724
H         6.96729866214269   -0.97413138925563    2.87055237611060
