37
 energy: -56.164865414559 gnorm: 0.134582822003 xtb: 6.4.1 (79825abcba525fcdf90b791dcacef51065a7a4e7)
C         3.89491860184738    2.74012795770075    0.79923527778449
C         4.31415448484669    2.16146217575418    2.13803193165738
O         5.08194772499978    0.98116285077673    1.89327509016193
C         4.43174220020529   -0.26405067645481    1.58142445304086
C         4.89750606756534   -0.47047464130670    0.13386460503813
C         4.77886637837147   -1.43490770839341    2.52755141116779
O         5.38941967910881   -2.56120107745716    1.86674088601220
C         4.56238660820653   -3.66351861322823    2.28989958507790
O         4.15038558414552   -3.37380231976586    3.63943048062478
C         3.61677704674591   -2.07334978396922    3.30727375014777
C         2.49211079208458   -2.49256559344620    2.32837726409475
C         1.21603833787010   -2.73367785734701    3.13922249188166
O         0.07971712099384   -2.75317240136376    2.28526812156448
C         3.16752183042108   -3.72602083790136    1.65991695780292
C         2.27591084613497   -4.95387512999983    1.80886896310265
C         5.91245670364212   -0.81354865482984    3.36024014940015
O         5.85519546983896   -0.31652496162953    4.48321034288055
H         4.77100474613509    2.93141240550170    0.17166758942984
H         3.33940053516331    3.67416929984104    0.93504623387321
H         3.22086181914746    2.01642497901705    0.33117547514540
H         3.48994711386360    1.91702081274555    2.81305414383051
H         4.93623549307673    2.93811287822711    2.59486120836551
H         3.34670173521005   -0.14141979160781    1.67891411760381
H         4.75004455329631    0.39892577719549   -0.51447375232299
H         4.35911749451854   -1.25751388783835   -0.40385935466877
H         5.98812544747923   -0.53174434297835    0.08193050923749
H         5.07917756096518   -4.62580836444951    2.24413490566152
H         3.21817430819058   -1.56064687814287    4.18441156803896
H         2.31007840150754   -1.71610162582615    1.57831625822292
H         1.03317901574460   -2.06963317275886    3.99175645379114
H         1.32075509803846   -3.67098940034422    3.69327318990843
H        -0.73341716574143   -2.56523984475925    2.78366539696280
H         3.21693913938283   -3.50418655279648    0.58654334653513
H         2.05655735899886   -5.32796255353221    2.81338330355189
H         2.71157984968358   -5.81951118243072    1.29595521247981
H         1.33183395121444   -4.68129718592833    1.32764996389602
H         6.85579163867008   -0.61743945414248    2.82640444042187
