37
 energy: -56.182472258496 gnorm: 0.125820970163 xtb: 6.4.1 (79825abcba525fcdf90b791dcacef51065a7a4e7)
C         2.44870328216928    2.23078194057080    1.52866934205244
C         3.23614059584988    1.18961451490190    0.75478166556883
O         4.06842421699937    0.43343337835461    1.63683204636185
C         4.77221366195618   -0.65661434634362    1.01469782411209
C         5.98679395119833   -0.08804820074549    0.26870626270679
C         5.13540239195540   -1.63360757971022    2.15493262165261
O         5.15452540142248   -2.95453763907722    1.57807866532153
C         4.27710612264512   -3.72415947241738    2.42422788574327
O         4.40422753458148   -3.09463474236146    3.71358925225510
C         4.07004922808807   -1.76584448754750    3.25655075586568
C         2.66871188642928   -2.03269691192044    2.65331144543762
C         1.58710333968095   -1.83484784428649    3.71864923104702
O         0.32261028310246   -1.76579360666705    3.07279104568449
C         2.82292777925899   -3.45039402695722    2.02818480127207
C         1.83177164750758   -4.47348027496725    2.57195587676584
C         6.35352220958872   -1.13389611416106    2.94926053892922
O         7.29656308023814   -1.82028891534862    3.33773466593626
H         1.72767992864933    2.73491479043229    0.87756776551220
H         3.04106293243394    3.09435292910481    1.84934574117540
H         2.08668240025327    1.75074436811533    2.44282651177626
H         3.72666821942154    1.62808159189772   -0.11806059432844
H         2.48649471049977    0.51073443576217    0.33523792526370
H         4.14415180233884   -1.15061688999552    0.26412801644415
H         6.61243779414571    0.59835863180645    0.84780901791995
H         5.64895329260882    0.51979414344425   -0.57677077140920
H         6.65665029454640   -0.85474897350120   -0.13049808818115
H         4.74229699294542   -4.71083318252628    2.35183134454424
H         4.15704274617313   -1.02862838849862    4.05659048811683
H         2.55707063174460   -1.27594488606105    1.87005789231160
H         1.82467445629716   -0.92107252610569    4.27522953035843
H         1.60617099550376   -2.69708643017066    4.39145805954234
H         0.29214846346526   -0.90611080682251    2.62010637146959
H         2.79741734928628   -3.49618136057169    0.93226686688153
H         2.00829717623655   -4.82785058921991    3.59193960597288
H         1.87354846939430   -5.32036205340362    1.87678704498235
H         0.83848365377902   -4.04354019921998    2.41169945045662
H         6.12634296498067   -0.15903582922633    3.40899641446638
