37
 energy: -56.180590160014 gnorm: 0.127494063166 xtb: 6.4.1 (79825abcba525fcdf90b791dcacef51065a7a4e7)
C         2.25567108260724    2.06105799140094    1.51399639491376
C         3.23387856239247    1.19589930327841    0.74095056969592
O         4.19366274397649    0.53008607501864    1.56437384497174
C         4.86152911627078   -0.59873527589704    0.97251956855693
C         6.16798881418529   -0.03192591897168    0.40079727884960
C         5.14261994640798   -1.59903140875548    2.11573993181925
O         5.12665001063736   -2.91645537294886    1.53082843691212
C         4.21018076868316   -3.68598292951638    2.33460842949924
O         4.40956684471344   -3.04038194249852    3.60675562741315
C         4.01058315062176   -1.72988080453149    3.14888925597635
C         2.61293121497477   -1.94375271485705    2.51668518935180
C         1.60028166961985   -1.78499786932747    3.65392024822462
O         0.27664952421706   -1.91486049086688    3.15194657139616
C         2.75461697932636   -3.39081678615477    1.95958418282698
C         1.88586389495887   -4.47394415350188    2.58957306338574
C         6.55606786703004   -1.51810226453462    2.71582297568460
O         6.91141200003699   -1.03758100050243    3.79016145264618
H         1.87178771563330    2.92683819897727    0.96534708370713
H         2.70835794582400    2.52082530655476    2.39896350436468
H         1.41197640914769    1.50739119978206    1.93685678193501
H         3.80804003890897    1.88277460108296    0.11384191136208
H         2.75344095209158    0.56919876970290   -0.01752831200873
H         4.21980869669537   -1.09305065505026    0.23380279991427
H         6.02334911785297    0.67374075598868   -0.42325276249004
H         6.82405561440156   -0.84205820919104    0.06657868103863
H         6.65476992885165    0.44196314148696    1.25775411957723
H         4.56912286154340   -4.71613609089736    2.40611924088648
H         4.09694490607917   -0.99962290838848    3.95535315835917
H         2.44847952875215   -1.15210477312849    1.77853031318072
H         1.80441610679865   -0.76822201111356    4.00846636852887
H         1.81166216585188   -2.53804964201991    4.41859138532717
H        -0.26663968636707   -2.05303482134786    3.94608165847636
H         2.68448815760097   -3.46433849755112    0.86712832303016
H         0.80410597756464   -4.34865733356794    2.48369876369600
H         2.19719155278546   -4.59656542775692    3.63372479196477
H         2.14674689576038   -5.44400378995611    2.15589580967463
H         7.39018505024843   -1.97091082715415    2.15677649073431
