37
 energy: -56.169502784383 gnorm: 0.123686721929 xtb: 6.4.1 (79825abcba525fcdf90b791dcacef51065a7a4e7)
C         3.34029783982179    2.43883586030646    0.65922378923965
C         3.57374110666855    1.85678606901677    2.04114692179055
O         4.55138575314608    0.81772705260620    2.12532595953011
C         4.60707010386326   -0.36019488505360    1.30072073065770
C         5.86742092769968   -0.13473325194116    0.45475440364437
C         4.91866287372695   -1.52391094092782    2.26779472729664
O         5.23725014170881   -2.71888956636210    1.52717967860265
C         4.34159267127477   -3.68587217942019    2.11104026538265
O         4.31039837206418   -3.37437738084764    3.51706724910280
C         3.86743146446178   -2.02114311365768    3.27462099370522
C         2.47569291273430   -2.32547269167275    2.66691918757483
C         1.32834848458441   -2.50180983883228    3.66515353838310
O         0.04473052065938   -2.38451202071097    3.06564532488694
C         2.91020711284762   -3.41171361427942    1.63944217715141
C         2.16658874613893   -4.74280528564922    1.63634315719593
C         6.13145485371704   -1.15437975538593    3.13789047566566
O         6.20494892371119   -0.22065101370856    3.93420861195622
H         4.30412162335223    2.61143491339957    0.17013162023693
H         2.73287248543740    3.34964615722105    0.62861005160865
H         2.81829039162711    1.68584656415221    0.06114865682736
H         2.65989350492123    1.38844855354604    2.41566911023753
H         4.00458604964482    2.49364904594967    2.82066103272114
H         3.65523497874247   -0.65043455765673    0.84069238075420
H         5.47595844754376    0.47525665666303   -0.36537608062476
H         6.22757679491203   -1.08301015150584    0.04305218309383
H         6.57919191017577    0.42618077400108    1.06684854956015
H         4.60428407872334   -4.71525900031920    1.85311622132939
H         3.90532924502881   -1.44308597216672    4.19957110240599
H         2.11392428902764   -1.53599421970052    2.00023282048290
H         1.30221355281259   -1.66990429055181    4.37821532381527
H         1.41841117532857   -3.33605222735041    4.36687926869695
H        -0.15453666560314   -3.15911084499019    2.51320066733617
H         2.95212884534631   -3.01071561059237    0.61903708982874
H         2.41122540607354   -5.19536424742853    2.60197749871088
H         2.53097555020024   -5.30900937631733    0.77098257614196
H         1.07803115407739   -4.64876198070032    1.57846527042469
H         6.90987977984168   -1.93288818030579    3.10184430130257
