37
 energy: -56.184785383928 gnorm: 0.122039224234 xtb: 6.4.1 (79825abcba525fcdf90b791dcacef51065a7a4e7)
C         2.82568160096167    2.46522897238741    1.39680323360356
C         3.77286196149482    1.59718270829977    0.58913107462239
O         4.34660070343905    0.70882319924416    1.55046350766196
C         4.78150381886358   -0.52857973831570    0.95862920258952
C         6.18004181750391   -0.39631654347050    0.34091238834622
C         4.92241834431170   -1.57480413975074    2.08650986119651
O         4.91880528984576   -2.88347171805667    1.48206092338900
C         4.15419537896342   -3.73417387351502    2.35945957015443
O         4.34597154525208   -3.12285140604607    3.64958387223780
C         3.89405670248624   -1.82587695120151    3.20251219166591
C         2.49459728340941   -2.12736843945255    2.61135196169281
C         1.54814895259440   -1.98813184962435    3.80668229999452
O         0.15525073166474   -2.11067723148011    3.55043800001191
C         2.66849713710324   -3.56096023979613    2.02911116882926
C         1.92574204139375   -4.76874911213906    2.58977490273000
C         6.22871498845040   -1.44505023011346    2.88728278266403
O         6.62905019299922   -0.45497112631424    3.49625601513705
H         1.95238563230284    1.89855939895022    1.73473461059493
H         2.42590658217142    3.35799721817179    0.90423551809768
H         3.36472113602635    2.81657341704915    2.28177327943895
H         4.56088282450995    2.23434246386378    0.17952772614177
H         3.17782890316754    1.11825051919865   -0.19535836470320
H         4.12170081385076   -0.94143439145247    0.18657592244821
H         6.87019551064748    0.15419069066821    0.98788551605067
H         6.05522791113802    0.04915208969017   -0.65126664091316
H         6.59754279157423   -1.40053921695940    0.22631975002334
H         4.55778209778926   -4.75003041759555    2.34151364668942
H         3.83276696417994   -1.13986846495889    4.04912598809930
H         2.20010599157871   -1.37053958132929    1.87711190094228
H         1.68247605632934   -0.98552081989568    4.22850494864771
H         1.77835762931210   -2.78546609866946    4.51925000321735
H        -0.13906088384635   -1.44367802154056    2.90747720944976
H         2.65687541301579   -3.68147488311188    0.93864130093422
H         2.18467266181841   -5.10476796199359    3.59831476434852
H         2.13104766634044   -5.55795231373398    1.85682084022908
H         0.87009740373785   -4.48272712819274    2.55883220739926
H         6.85672909728099   -2.34999098442069    2.88803282951938
