37
 energy: -56.172971970828 gnorm: 0.139060738631 xtb: 6.4.1 (79825abcba525fcdf90b791dcacef51065a7a4e7)
C         3.82489432405192    2.71519709543206    0.51076390536411
C         3.23452331956494    1.64934103840267    1.41541975203668
O         4.13570660504249    0.76121578037145    2.07996547060740
C         4.51315779759098   -0.40275524095119    1.32281512211113
C         5.70266647712159   -0.25978779386119    0.36385446279363
C         4.91025947751884   -1.48328113119221    2.35302444364608
O         5.12392563002445   -2.73861266829660    1.67739741478900
C         4.35214314264176   -3.73418181872352    2.37835726222770
O         4.23181244705888   -3.27509482236773    3.73838433005519
C         3.81102623527240   -1.95879628851399    3.31821771853060
C         2.50735483394138   -2.24747185360881    2.53338556555761
C         1.44580540457787   -2.36290423802212    3.63054283587691
O         0.12630872458680   -2.55171579188652    3.13645510883340
C         2.89816750231953   -3.61975900436275    1.91006830796300
C         1.99165484791802   -4.78991690598594    2.27578433815983
C         6.03928055159937   -0.98787117028933    3.27191758958871
O         7.19520770823803   -0.71241593569101    2.95675079412812
H         3.08723227444323    3.48046551042083    0.24965699100591
H         4.10650825165180    2.22304637484440   -0.42623098440439
H         4.76871950519569    3.18991006482617    0.79540427784628
H         2.38637629254246    1.11902875611650    0.97480672734219
H         2.75152057391800    2.21989362346519    2.21544610031674
H         3.73447608302070   -0.81072651102196    0.66778117788881
H         6.55380684261181    0.25681589968568    0.81841497526192
H         5.49419571839236    0.29150625422009   -0.55867187728911
H         6.10274766230368   -1.19902360529727   -0.02815681494578
H         4.89510334051238   -4.68005117571497    2.45381712007792
H         3.71155144952690   -1.24581624105868    4.13851231970167
H         2.16800995810021   -1.54953486809190    1.76114691684524
H         1.45691256113885   -1.46597293863438    4.26030300683578
H         1.53828423787303   -3.29235018859528    4.19981303876472
H        -0.22702867017393   -1.68414907394880    2.87686595645194
H         2.97508484992060   -3.61274566570827    0.81561962695470
H         2.12838615636728   -5.12382145243436    3.30870190117154
H         2.25366262328218   -5.67556539808359    1.68485927992887
H         0.92370026175288   -4.57914372047657    2.16533393491134
H         5.75694631089156   -0.83021121845896    4.32488993112407
