37
 energy: -56.181929965160 gnorm: 0.123540886661 xtb: 6.4.1 (79825abcba525fcdf90b791dcacef51065a7a4e7)
C         2.15314230643922    1.77123515701070    1.54281462520182
C         3.57190082325902    1.46920293004812    1.09684370314044
O         4.14744313971994    0.37460339474661    1.81316883609566
C         4.87351380865767   -0.63154509969850    1.08442938784878
C         6.17533137393960   -0.09642647207044    0.47295967060838
C         5.11631133784177   -1.74651776700833    2.12579507656678
O         5.13656005927120   -3.04228772997147    1.49448487208139
C         4.16591358451273   -3.75427356574902    2.28762574654916
O         4.40462006070527   -3.27726398852848    3.62568219048230
C         4.08775214703428   -1.91723057531152    3.25670159037664
C         2.66376927236283   -1.98443285230998    2.65121764091127
C         1.58175951596597   -1.82103337319223    3.72197501951916
O         0.34260030559249   -1.65074624745331    3.04645247345446
C         2.74768345058042   -3.33771922371867    1.88570777963806
C         1.83256047252822   -4.47298282345155    2.33125172464760
C         6.52294846861293   -1.46353428944581    2.67876577186003
O         6.65510980160001   -0.66844928625569    3.60706880730832
H         1.43614973265485    1.14357968254909    1.00436488591913
H         1.81515739243640    2.78272465812383    1.29354901246116
H         2.02734051059406    1.70082504928272    2.62743199697533
H         4.23963257559984    2.27777137378360    1.40518720502086
H         3.57608199828506    1.45195991786546    0.00206096089432
H         4.28462309948779   -0.96454608281586    0.22177458508474
H         5.88909524784685    0.73318276362470   -0.18107546670643
H         6.59891366286820   -0.97318461018728   -0.02735348411708
H         6.84024497261413    0.31163755748366    1.23929860375656
H         4.37464173402031   -4.82145491547025    2.17481911880520
H         4.13457086923824   -1.12437794198906    4.00524130439126
H         2.49329965268482   -1.13484923308542    1.98206048950012
H         1.87008594953574   -0.87893982820171    4.20211521955671
H         1.42891346673438   -2.60671891983850    4.46751305780108
H         0.44713568161840   -0.90536773383631    2.43131909095551
H         2.66169727262225   -3.06512614111974    0.82642370168174
H         1.85075563192161   -4.62181717277588    3.41505228701124
H         2.17162542855726   -5.36931247055334    1.79848360457536
H         0.80481959609952   -4.32376186685861    1.98681969966602
H         7.34224374967442   -2.07998826148008    2.27619927658423
