37
 energy: -56.177872382555 gnorm: 0.128811173357 xtb: 6.4.1 (79825abcba525fcdf90b791dcacef51065a7a4e7)
C         3.54138496605893    2.88250022657346    1.00513904039461
C         4.22543319876526    1.65739830817007    1.58323295274878
O         3.43205631428130    0.49890779491795    1.31682788901200
C         4.22567641993788   -0.60658131374493    0.84924308238992
C         5.19545676754575   -0.29618566699686   -0.29886699200534
C         4.79593896724325   -1.38740787665327    2.05409481586413
O         5.06625878422873   -2.73489565141287    1.61913929174067
C         4.50323444242584   -3.62795313970851    2.60077200163560
O         4.53229029147710   -2.84688517885372    3.81073174291448
C         3.83511794182352   -1.73734863357018    3.20317744142930
C         2.49731810640217   -2.38726897056709    2.77103237024781
C         1.42004512123158   -2.60342013262200    3.83720659696781
O         0.23059916492916   -2.98244837374125    3.15720668310964
C         3.01324565596306   -3.77007013991212    2.27493695398276
C         2.53102560155302   -5.09985463059746    2.84407661842870
C         6.05349910823304   -0.81124956339899    2.72571104964205
O         6.16431983990602    0.37024018021333    3.04691824706651
H         2.46776290605604    2.94680808257109    1.20801348738054
H         3.62103771697176    2.95549311413562   -0.08472592294015
H         4.02433077390159    3.77882408067905    1.40582023043884
H         4.17391820587270    1.76931206506723    2.66930194501642
H         5.26928806309023    1.53079885019207    1.27794020436757
H         3.43501825843519   -1.24855185202954    0.44354768499645
H         6.25381962404848   -0.39148779345347   -0.03670268707322
H         5.03485220578885    0.67074762097305   -0.78639773114812
H         5.10170821338940   -1.12431786283173   -1.00689946656135
H         5.18788317022369   -4.47139382539472    2.72338010331051
H         3.79593904568211   -0.91537794461319    3.92007926105620
H         2.05242649978740   -1.82142883935437    1.94609605561620
H         1.39137012184648   -1.67496041493586    4.41888287547108
H         1.63996002110135   -3.33891152920351    4.61642448233906
H        -0.16548481913902   -2.13519351261572    2.89228682470808
H         2.94323141172213   -3.86443100030844    1.18407609238111
H         1.44579742880759   -5.23542109109327    2.81232856935614
H         2.73376274655554   -5.28221752387278    3.90608188060452
H         3.09810992604987   -5.87886878643710    2.32571000767750
H         6.79005040923636   -1.60733206780698    2.91823347029009
