37
 energy: -56.172654767369 gnorm: 0.130094432408 xtb: 6.4.1 (79825abcba525fcdf90b791dcacef51065a7a4e7)
C         2.91220808783688    2.65017258734180    1.18070913168905
C         3.71127139212609    1.48411228243796    0.62863081505077
O         3.92349573675483    0.49994156161129    1.64297179787371
C         4.58200573756841   -0.66038599502127    1.10391787012746
C         5.79465644469843   -0.33984179673054    0.21977657987423
C         5.04257489239116   -1.58096533199534    2.25585837748095
O         5.25826238482574   -2.88697765598690    1.68507547732230
C         4.29099173297876   -3.73443893031916    2.33649526113118
O         4.34802469837673   -3.27650512495088    3.70103102303224
C         4.00422591843008   -1.92129683036938    3.33846278689010
C         2.56778876307687   -2.10731769080671    2.78992041589214
C         1.54245086825384   -2.25171859180326    3.91765995440798
O         0.27491491115800   -2.39319293668368    3.28982113800331
C         2.86088265130474   -3.36951141471627    1.92655841664605
C         1.90977058494008   -4.53701625824451    2.16551700549938
C         6.37164485289639   -1.16378600892861    2.90702556694160
O         6.55925908545896   -0.10994276528667    3.51166481608246
H         3.09722184778009    3.63448820560253    0.73929034953425
H         3.21998551997000    2.69196482452248    2.23094940065786
H         1.85337690154674    2.37483369727600    1.16510351239317
H         4.70492494644625    1.80999798660545    0.31054991158863
H         3.35140714859437    1.06506438191441   -0.31675833553789
H         3.87138788937669   -1.25249716996058    0.51546066734223
H         5.48214697434776    0.22715840201846   -0.66271600725779
H         6.24514386008787   -1.30324928430097   -0.03973669856950
H         6.59960924807707    0.23274788537632    0.68891807904174
H         4.64808280903567   -4.76648615774057    2.28616338996780
H         4.11478358058491   -1.27707573195503    4.21246231950404
H         2.26073329616635   -1.27745039663603    2.14520285927330
H         1.51684750325473   -1.35007710899691    4.54023051056763
H         1.68127032907975   -3.16399795754284    4.50499817469547
H        -0.38782382631102   -2.49850411960760    3.99309403907266
H         2.74054883304614   -3.10491296811872    0.86859300430981
H         0.96002576494117   -3.99382359837511    2.17125338247887
H         2.20644350203696   -4.90945542851222    3.15318496534011
H         2.02799752925243   -5.42332452866606    1.53493658545874
H         7.08845399290222   -1.93402682931184    3.23296081237278
