37
 energy: -56.177526076007 gnorm: 0.126215208221 xtb: 6.4.1 (79825abcba525fcdf90b791dcacef51065a7a4e7)
C         2.36356629097805    2.09357553341983    1.27086598826107
C         3.55315961310139    1.29566991750939    0.76966380921211
O         4.07687688088618    0.40128535326012    1.75369393526588
C         4.73121417308906   -0.68392332850525    1.07197592863284
C         5.97501921154658   -0.29903847053225    0.25970207219133
C         5.04449723584525   -1.66932533697856    2.21975370310388
O         5.26324086304887   -2.94138035761395    1.57787393403213
C         4.28498134620498   -3.79557223442438    2.20358586001514
O         4.23019974872255   -3.36435277175002    3.57688944003419
C         3.95292073758760   -1.98340450912134    3.25698148596962
C         2.60109401515149   -2.13512602183739    2.51644160845420
C         1.55961822501411   -2.29755985033020    3.62680611162946
O         1.53891990216906   -1.13427279808613    4.44361623989208
C         2.90183079486386   -3.40796162558824    1.67152866140151
C         1.93548119116145   -4.55718025875042    1.93657187972983
C         6.16393159803952   -1.07517628126376    3.09057967029092
O         6.02971104758188   -0.13462217861891    3.87078228766245
H         1.82445101557904    2.59147072858951    0.45882352374147
H         2.60926106364038    2.82484688169195    2.04826836442815
H         1.62022187692591    1.46512971865051    1.77053934250985
H         4.20672754959393    2.02268991140958    0.28077198157998
H         3.10378573341120    0.72328821961051   -0.04844765863321
H         4.03899560403642   -1.17487083105936    0.37795917726498
H         5.71621847301175    0.24055288113951   -0.65670826832648
H         6.52096050971348   -1.21429214534078    0.00930468660882
H         6.59366444984236    0.34839378416000    0.88740523126884
H         4.63292462161790   -4.82546112983378    2.08768437951269
H         4.00848684725263   -1.30587241366782    4.11078572604828
H         2.31855915610583   -1.27588449919807    1.89959351161523
H         1.73273094161569   -3.24469632604766    4.15041997688206
H         0.56791091905364   -2.46809526723464    3.19794137360652
H         0.99032860145958   -0.39665692306651    4.12758418843067
H         2.85460301910068   -3.17552953421218    0.60030121608156
H         2.22200737549583   -5.05377496560658    2.86845322147004
H         2.23212547044752   -5.29093966855498    1.17774841232773
H         0.85526084000836   -4.38318543124613    1.93776278442810
H         7.10436899786425   -1.64720389659343    3.04956811701232
