37
 energy: -56.167643353599 gnorm: 0.136934952439 xtb: 6.4.1 (79825abcba525fcdf90b791dcacef51065a7a4e7)
C         3.44644475638269    2.93251850054516    1.55805490252624
C         3.39980062668222    1.41579681437956    1.53884710185280
O         4.65794629928224    0.80969817881425    1.23514862477850
C         4.56908856521210   -0.58751985580728    0.90279216673674
C         5.59478096859199   -0.66275068690917   -0.23618620791127
C         4.91053715470072   -1.48985571298505    2.10934114405937
O         5.09087311374677   -2.84160928129291    1.64219680287579
C         4.44537652903036   -3.67092625077973    2.62896853185083
O         4.39696212086285   -2.87654182182001    3.82960312953288
C         3.83720572382406   -1.70920879629750    3.18909604291237
C         2.55208146604993   -2.30374099375482    2.56152810850252
C         1.38326216181008   -2.23296468707532    3.54784356316304
O         0.10017812316672   -2.69874395940620    3.15086870154088
C         3.01436055401916   -3.71183540552641    2.08403541336388
C         2.07517709376580   -4.83730176227753    2.50361010766608
C         6.22485290411244   -0.98226719015413    2.72530591057496
O         6.33583483797414   -0.19749896917479    3.66509061246475
H         3.88159575536771    3.23790134761480    0.60131941198670
H         4.08822900340378    3.27259026170609    2.37777579605114
H         2.43380112444562    3.33915218785265    1.63793258668406
H         2.51304714104157    1.34196682953196    0.90407017740203
H         3.10670092988487    1.04166993499974    2.52524748911261
H         3.57577883997947   -0.73577357440964    0.46323330063788
H         5.16026436760148   -0.31680939587743   -1.17930049041282
H         5.88809610885367   -1.70422983508402   -0.40270194908681
H         6.39688161806057    0.03449744893991    0.02145954507929
H         5.02490830943485   -4.59106502043698    2.74146928029857
H         3.66844798570636   -1.03008576352350    4.02661134599227
H         2.39355427534591   -1.62682965687131    1.71578360480818
H         1.22976474043406   -1.21111798492079    3.91318571981215
H         1.70383155683500   -2.75889693111431    4.45179115349696
H         0.02895717844272   -2.42171305942288    2.22184377400315
H         3.10124948645885   -3.65856013759671    0.99160898971869
H         1.01971512760268   -4.58930313665590    2.65059015394902
H         2.34522075616180   -5.13950389639551    3.52241532089917
H         2.11548120129341   -5.71644373857482    1.85350502821078
H         7.14860316044620   -1.50892922462002    2.43784681644778
