37
 energy: -56.172537847240 gnorm: 0.124951504361 xtb: 6.4.1 (79825abcba525fcdf90b791dcacef51065a7a4e7)
C         2.95102517218681    2.39054281653521    1.11263511180960
C         3.41892605224041    1.58657055085142    2.31167081598708
O         4.63494252719301    0.87130940912779    2.08314460828118
C         4.72481319363836   -0.32791667652313    1.29298344829644
C         5.84441741510630   -0.15041308485135    0.25859715084224
C         4.99149345610612   -1.57684670174594    2.16224327722640
O         5.17813586525548   -2.81925259463306    1.45543735360445
C         4.37658533059578   -3.73906581990264    2.22329882549645
O         4.37340539221866   -3.19512525067665    3.55710260560227
C         3.84799396468163   -1.91838376699370    3.13270081078889
C         2.61590247080224   -2.20205918431714    2.23808746072864
C         1.32628128096133   -2.00287041553725    3.03881645931764
O         0.14498281540537   -2.16608214845671    2.26503364769618
C         2.92364178926119   -3.64721247909737    1.74690577372245
C         2.23226444503799   -4.77002007615542    2.51246661957738
C         6.27235751070005   -1.34230161859964    2.98008200042310
O         6.23776047392506   -0.77904181729126    4.07228837453049
H         3.86716659110478    2.83141153218360    0.70732344869095
H         2.28538905592263    3.21454173697684    1.39090206667120
H         2.42127616095092    1.84468991643646    0.32613074815231
H         2.65077283611376    0.97286568644449    2.78919705359696
H         3.69871439917890    2.24943694931583    3.13701358141920
H         3.75203584655430   -0.33947483095217    0.78758668404795
H         5.87934088653096    0.89007503111208   -0.07920367344503
H         5.57671222992547   -0.77175391287375   -0.60204769524407
H         6.84116158313479   -0.33083583413251    0.67072626278974
H         4.99926908828261   -4.63750274325878    2.23894662310570
H         3.69587834716915   -1.21413470286008    3.95246487301745
H         2.50108413537638   -1.50386188777531    1.40264697090251
H         1.35894833692194   -1.02010022464191    3.52286461207817
H         1.30762690294669   -2.67604356869322    3.90077968101064
H        -0.42096552737704   -2.88674979545298    2.58945076834278
H         2.90216222792232   -3.90993897959878    0.68187206526396
H         2.28121783551650   -4.50649905844007    3.57325247629456
H         2.62006780727895   -5.76983005117925    2.28398834882520
H         1.17312472907606   -4.79678102372751    2.23922946116732
H         7.26501706224921   -1.66766824430427    2.63067731877583
