37
 energy: -56.175986921957 gnorm: 0.127200931969 xtb: 6.4.1 (79825abcba525fcdf90b791dcacef51065a7a4e7)
C         2.69972449457706    2.43994783257466    1.53094338602252
C         3.39419509402417    1.29438322773759    0.81793456296445
O         3.95642233012135    0.35677087845561    1.73842487485216
C         4.70183430701333   -0.75029663635996    1.20052424977886
C         5.93770313160564   -0.43629757745159    0.34670402450081
C         5.14268203470539   -1.69659949723192    2.33926099473647
O         5.37910280821746   -2.95390434361921    1.67497783799823
C         4.39617902655197   -3.78829717965971    2.31980362113495
O         4.37352387077795   -3.38376450659075    3.70210388879594
C         4.02768494243999   -2.02737881957219    3.34593518688404
C         2.66540612798395   -2.15718162139491    2.62053747263706
C         1.48080675490861   -2.05473254752503    3.58500332371501
O         0.26540634341777   -1.72622451661589    2.92490615391439
C         2.97930521373818   -3.46486393023066    1.83576662108513
C         2.00561908335834   -4.58985312826261    2.16910959869398
C         6.36018879190227   -1.02683096671790    2.99772255879457
O         6.29425567473524    0.02281218391205    3.63433497473704
H         2.09800752766509    3.03846850242261    0.83980840140762
H         3.31719763461549    3.15270369988819    2.08788517208960
H         2.06911180111908    2.11691462930989    2.36470336277185
H         4.28100402465618    1.58983447045582    0.25136345593401
H         2.80494268091477    0.72504047704530    0.09164640734888
H         4.06267735503186   -1.37923748824396    0.56983649546706
H         5.58466910891747    0.02601428662261   -0.58043096167207
H         6.58823859875073   -1.30137979834098    0.18276382337169
H         6.45357318191501    0.33829674029926    0.92097177519600
H         4.72484495673517   -4.82467521621107    2.20548790667585
H         4.08521109143660   -1.47041626957765    4.28273956925346
H         2.48443356097685   -1.25334341977729    2.02981846864716
H         1.63290128112586   -1.30344685680520    4.36835768400398
H         1.29739840428874   -3.00709357917285    4.09082988020661
H         0.07220726559650   -0.78881393263487    2.75507870554638
H         3.06769216788851   -3.27085004516447    0.75950934126521
H         0.95847174585697   -4.32594187981081    1.99321277246130
H         2.06973577920703   -4.91539200065624    3.21415851678817
H         2.12645745331265   -5.49469998319869    1.56594968501027
H         7.28165069341635   -1.62003375943927    2.88664401140098
