37
 energy: -56.175705554308 gnorm: 0.127343037478 xtb: 6.4.1 (79825abcba525fcdf90b791dcacef51065a7a4e7)
C         3.37470488806198    2.90026969615291    1.87202631299475
C         3.59816432849454    1.76334732215381    0.89199434691379
O         4.26886775701613    0.73455680361382    1.62292921012575
C         4.62844039121879   -0.52619160466751    1.02980565017795
C         5.72631682455327   -0.44297648650195   -0.03917456356594
C         4.92073324242720   -1.49071972944161    2.20062056755709
O         5.15582006118028   -2.80557156060108    1.65851240529590
C         4.38198265674399   -3.67338789043200    2.51069862317613
O         4.31471226152824   -2.96373974945923    3.76241272086315
C         3.78965323472402   -1.73498272332156    3.21404054012143
C         2.51955355086032   -2.25333602482799    2.49500587661803
C         1.27882341747481   -2.16060625343153    3.38716943133509
O         0.12829563205921   -2.61569302586789    2.68715099466534
C         2.92511124357311   -3.68537707877937    2.03760852727709
C         2.16354745902902   -4.89494720314705    2.56840381764961
C         6.27482339973762   -1.25724784805035    2.89084878473274
O         6.38204021110679   -0.57191189227747    3.90583276924416
H         2.82308283493811    3.69304535236065    1.35707220088786
H         4.28832997550771    3.27607145363774    2.34482690249442
H         2.71401572028991    2.61975245710775    2.69784616087939
H         4.31646122765035    2.06402605669612    0.12494402300480
H         2.74217340789748    1.43108395607715    0.29555100860136
H         3.67761474547430   -0.93057883716865    0.66339494581844
H         5.43105019597622    0.06748240352841   -0.96123415595784
H         6.05859224462389   -1.40679298146803   -0.43803649230534
H         6.52934123859892    0.14587243614615    0.41283256484204
H         4.94985746284712   -4.59782574593320    2.64524106824910
H         3.70760761947891   -0.89922821332940    3.91110719616697
H         2.27138517238093   -1.69976637736702    1.58363514095908
H         1.20825343087597   -1.08449968375243    3.58267268860158
H         1.48510584750823   -2.59777150964547    4.36840577689461
H        -0.39290402197787   -3.28938338643625    3.15555047120847
H         2.86596760613073   -3.80378229459150    0.94845031451885
H         1.15259420454469   -4.76209167256314    2.17163018275112
H         2.15816546122171   -4.80558964780106    3.66119840675690
H         2.70889668494985   -5.78145267059539    2.23098137243507
H         7.06971817079216   -1.86219327431226    2.42662536417980
