37
 energy: -56.177805652777 gnorm: 0.119485099916 xtb: 6.4.1 (79825abcba525fcdf90b791dcacef51065a7a4e7)
C         2.83073370595939    2.44596038845774    1.63517966930845
C         3.99200850558996    1.46908630312761    1.64730929606195
O         3.43682691348573    0.29873759422951    1.04350792193988
C         4.38210807979727   -0.77258306832907    0.87236436624419
C         5.40261268920751   -0.49171302538617   -0.23878750392091
C         4.94937923309239   -1.57444816846137    2.06474558374762
O         5.22044319392189   -2.89008731075675    1.54167735878483
C         4.50328401138708   -3.77929443301234    2.42096358138007
O         4.70793206507739   -3.14111092909879    3.69601454696181
C         4.09623313907530   -1.89260418518799    3.30448141397747
C         2.68187716621575   -2.26784482140329    2.79689313785388
C         1.50369100140452   -2.06172377346257    3.75259045551707
O         0.29078774625464   -2.12347331988213    3.01374225810373
C         2.98862992527272   -3.67929812650492    2.21540084572271
C         2.18339521165841   -4.74229455833957    2.95460215710170
C         6.20498965646864   -0.86572610045969    2.59919834350379
O         6.46399345118390    0.32887791787048    2.73039122834754
H         2.68182282411527    2.87619372897362    0.63984922594723
H         2.99688590788457    3.25385816374806    2.35571613004036
H         1.92370496625563    1.94848117960103    1.99153879017324
H         4.16939328069791    1.17622027513525    2.68533071637835
H         4.91427564406596    1.89297263226141    1.23669053799903
H         3.70764394637465   -1.50277677494847    0.41001109317814
H         4.79179351124223   -0.12105619295643   -1.06791837864961
H         5.83941194516912   -1.41385242691506   -0.63540490927472
H         6.19190766546695    0.22510996238739    0.00427615962432
H         4.90320302216996   -4.79662655943450    2.43736314100220
H         4.33604818875216   -1.17805985126129    4.09380653788869
H         2.41477410710861   -1.61209276675958    1.96186695653045
H         1.64563937947355   -1.04505343384355    4.13656841869351
H         1.43581176090501   -2.73028187262800    4.61567396529097
H         0.16794133875456   -1.37395183708015    2.40708571688039
H         2.80407500292684   -3.81631224115526    1.14257746920635
H         1.15089868402428   -4.39685896304649    2.84628980872668
H         2.63055814179959   -4.86293445081691    3.94843568722773
H         2.27755769160629   -5.68989062599685    2.41576382277294
H         6.88932212487489   -1.56680699344580    3.10268092365639
