37
 energy: -56.175345299739 gnorm: 0.126246437446 xtb: 6.4.1 (79825abcba525fcdf90b791dcacef51065a7a4e7)
C         3.64392688915383    2.73145997985464    0.78170855728373
C         3.38792637615724    1.67214269062724    1.83778614810763
O         4.50864653226802    0.82811668020980    2.11004562730272
C         4.62280271297467   -0.34630248440252    1.28646650268048
C         5.71587841816544   -0.14239719362493    0.22883506504378
C         4.93328863674824   -1.56813804204211    2.17936824724689
O         5.13111820550504   -2.80053218881388    1.45822298737001
C         4.39673099809699   -3.76716176846614    2.23568908430973
O         4.35519983449493   -3.25516856737377    3.58144243911691
C         3.86504133034750   -1.94551638931354    3.21978146966946
C         2.54932595133904   -2.31583582565950    2.49135114860543
C         1.25339835834370   -2.01076424452631    3.24730674010573
O         0.10749511818325   -2.67120456423137    2.72618458302086
C         2.89120442770766   -3.73697609192889    1.95477832934862
C         2.10042070305474   -4.81347169082228    2.69003423075368
C         6.23020620845980   -1.19536807762120    2.91661420797075
O         6.23096954690278   -0.66316230837793    4.02482435563485
H         4.66333171921892    3.05849373892159    1.00934990223005
H         2.90383570627854    3.51825126823298    0.96254735065395
H         3.56475513344607    2.33989813535652   -0.23691290020245
H         2.55893958866957    1.05313147025219    1.48518105711793
H         3.23008171743315    2.03886527052803    2.85732706237998
H         3.64596137096744   -0.64890130583994    0.89140930960607
H         6.64128971131922    0.08859303352333    0.76567956300457
H         5.41371298015846    0.70122403210239   -0.40000458877843
H         5.87946505892788   -1.06133903066349   -0.34097807631972
H         4.89303687013052   -4.73542643541113    2.12932733124836
H         3.75347431730622   -1.31937332195715    4.10669558237508
H         2.48975605571832   -1.64401956237190    1.62894877811497
H         1.08450650320482   -0.93253170972588    3.34779119455518
H         1.35397866162836   -2.42922390982643    4.25292385103923
H        -0.00127807012421   -2.47906182762763    1.77952972951848
H         2.80381128744049   -3.83335349627121    0.86534856778745
H         2.42211917791233   -4.92511690902894    3.72981873956429
H         1.94673750676953   -5.76939144987405    2.17543473993674
H         1.03794103392972   -4.57441599624488    2.79558494002880
H         7.12018070436641   -1.36513650402140    2.29016060452952
