37
 energy: -56.181778478233 gnorm: 0.120471823764 xtb: 6.4.1 (79825abcba525fcdf90b791dcacef51065a7a4e7)
C         3.61071565293001    3.00205460602394    1.41008227578846
C         3.58879674969244    1.61331936222407    0.79858963539411
O         4.11359329459443    0.68706941603551    1.75209287527627
C         4.51887568444647   -0.53739512508879    1.11412159333578
C         5.77374250683257   -0.39273593716151    0.24270945776452
C         4.86048079486908   -1.53224642589884    2.24555166295096
O         5.14212441608689   -2.80906078505956    1.63858844464364
C         4.36287120900149   -3.75202664562148    2.40130115598394
O         4.31933437564817   -3.19940521194868    3.73082289839128
C         3.80391361411324   -1.92316854433788    3.29286827998428
C         2.53429558744344   -2.31444024595790    2.49673342127693
C         1.42125098463682   -2.34401741763805    3.54755347721592
O         0.15622794733735   -2.35550264565512    2.89914868530121
C         2.93150526083117   -3.67901551023886    1.86065970004427
C         2.14397740660616   -4.88445400521347    2.36215828837809
C         6.12698629241981   -1.08757178716401    2.99569333408219
O         6.25251343239247   -0.14854061928144    3.77917064000685
H         3.14371261062489    3.77797363799798    0.79541514400327
H         4.62320979918639    3.29098662146682    1.71149902106278
H         2.98725975086286    2.91374889137131    2.30489139498350
H         4.20926961788691    1.68218036050120   -0.09862601244771
H         2.55036781253368    1.29322250381263    0.66417457971467
H         3.72010085876516   -1.00948552118102    0.53021691798310
H         5.61066370592084    0.04068359579984   -0.74900490101298
H         6.22307491970307   -1.38927031682672    0.30152827096901
H         6.36222108654127    0.34443573703455    0.79603811133029
H         4.87829503899105   -4.71511647893261    2.44563013015346
H         3.84201309022330   -1.24089589256226    4.14385091937393
H         2.19150711228839   -1.58195288170232    1.75877554526182
H         1.41683687066055   -1.51191023225733    4.26084523961196
H         1.65781989874402   -3.24760558903998    4.11681109646159
H        -0.56576759610530   -2.61169591438211    3.49747409522052
H         2.89242623115638   -3.59361088301669    0.76751640930088
H         1.08136529593510   -4.62387100279717    2.35451691925697
H         2.37044922822266   -5.03858547931350    3.42383985733768
H         2.38549254624242   -5.75050203344582    1.73863372915232
H         6.96179382073277   -1.71233706666356    2.64060915080201
