37
 energy: -56.174752774579 gnorm: 0.111723802247 xtb: 6.4.1 (79825abcba525fcdf90b791dcacef51065a7a4e7)
C         5.46022426644747    3.07521109870392    0.84453516406604
C         4.36111573381917    2.08655693569496    1.18733634058304
O         5.00618269400108    0.82609046369314    1.38132525554925
C         4.04521034089010   -0.24470532716131    1.40375517858512
C         3.68534129881279   -0.78442605792898    0.01301008664021
C         4.59432391294373   -1.22377659074551    2.46509909239864
O         5.31191609522308   -2.38323673039345    1.99744965196502
C         4.64233165050788   -3.50884904089482    2.59978214848895
O         4.32894555104263   -2.94411068815452    3.88732776362232
C         3.51353234670324   -1.88728721486169    3.33554130585941
C         2.45405026369768   -2.63006943432986    2.48429136321934
C         1.16366773054342   -3.01017487779488    3.21531709780478
O         0.08867682548269   -3.24799021538121    2.31604940962312
C         3.28057111321739   -3.85298881792142    1.98854707005347
C         2.78648549448357   -5.22458534815481    2.43507284136084
C         5.52533130252306   -0.33997668348992    3.31162565092465
O         5.16309998272466    0.28658458786324    4.30539762862779
H         5.80857928593657    3.00921404987497   -0.19096038851925
H         6.31288184772610    2.93341648319843    1.51710300224589
H         5.17742649698562    4.13034998605321    0.90687191280700
H         3.56020798612613    1.90151845961593    0.46689766834413
H         3.86525289384672    2.33422205183291    2.13160648146838
H         3.10907734800689    0.15563586412519    1.81024895252864
H         3.77220179205811    0.00446762526347   -0.74067855357753
H         2.64349682972295   -1.11716738300448    0.06079444689972
H         4.47755486083978   -1.50360375728871   -0.21300498882501
H         5.33145564867269   -4.35029258640606    2.71046040873662
H         3.03446553006941   -1.16554187313225    3.99939192290380
H         2.25464233593806   -1.98893952986251    1.61952987636291
H         0.97658897541865   -2.08393131424096    3.77054803340140
H         1.21524534260204   -3.83961018875322    3.92656070666624
H        -0.06031435554934   -4.18531940440130    2.10599830036200
H         3.29842691406813   -3.82454950131987    0.89189044943367
H         1.94660150021819   -5.54007218427102    1.80883860590653
H         2.56348256010020   -5.21961187353815    3.50859913454285
H         3.51010768221204   -6.02172315203071    2.23989632452730
H         6.58072918405399   -0.62377304905864    3.17409389819619
