37
 energy: -56.178064901265 gnorm: 0.128140451535 xtb: 6.4.1 (79825abcba525fcdf90b791dcacef51065a7a4e7)
C         3.47526248768706    1.93299218078741    0.15562094769727
C         2.99478298552691    1.39067045132496    1.48904355494267
O         4.00652058490273    0.59333008337747    2.10803803042250
C         4.74078633468065   -0.42874000313528    1.41032667596205
C         5.99032141685804   -0.06955361438560    0.59508232432012
C         5.04250501503827   -1.55551915319150    2.42318984434098
O         5.24923322416777   -2.74704937620501    1.63865074970013
C         4.25818169361929   -3.68703658296357    2.09951057552766
O         4.34107335293031   -3.43170829883070    3.51473155313171
C         4.00733891823127   -2.02753927595244    3.45839736617615
C         2.59718998480441   -2.06930698469800    2.81918718275094
C         1.47498136061560   -2.47572476267597    3.77806062652505
O         0.15880821569950   -2.23706451967344    3.29683977380081
C         2.88946054083804   -3.12100763527429    1.70881128503832
C         1.94610254037024   -4.31433587975310    1.60476171353893
C         6.30252720156703   -1.28683700869859    3.26261720276994
O         6.51180781466535   -0.18865091637159    3.77404877450346
H         4.37230404398084    2.52597184401258    0.35970287594841
H         2.76698354418578    2.65416435736528   -0.26595916202178
H         3.56628676151957    1.10206802242795   -0.55039473492200
H         2.05057525127356    0.86213627250360    1.33461652816355
H         2.86469214300324    2.22266077778920    2.18885247972854
H         3.99849143746086   -0.82666725523064    0.70853793367380
H         6.65305734029833    0.50388056612539    1.25074908385328
H         5.78138534146856    0.51287474199533   -0.30800292103923
H         6.44815814641645   -1.03254208615153    0.35230579044234
H         4.57021440910310   -4.69685326622657    1.82009213292989
H         4.03309972807257   -1.47633651505449    4.40000817247632
H         2.38893492546003   -1.12683646513457    2.30246417446083
H         1.54527788712311   -1.91485613621083    4.71704506499106
H         1.49252577484678   -3.54138328080805    4.02413944584104
H        -0.11067197901925   -1.39825042537876    3.70754306382185
H         2.99385693533337   -2.64131547241838    0.72759764629678
H         2.00228320405575   -5.03154602576049    2.42911584246920
H         2.18629629909617   -4.87780092511755    0.69535099579595
H         0.92108826580784   -3.93392933374119    1.56247430591015
H         6.75651652085733   -2.18586189263648    3.70867551497419
