37
 energy: -56.183213925166 gnorm: 0.113253958424 xtb: 6.4.1 (79825abcba525fcdf90b791dcacef51065a7a4e7)
C         3.03362952963474    2.09226590265762    2.33305017506379
C         4.20383672162144    1.48840942441011    1.57875464506063
O         3.69451219290560    0.30671614540182    0.95689588448368
C         4.59929056128148   -0.77656800728786    0.67681350836628
C         5.74038010905651   -0.23277763389114   -0.19334900411125
C         4.96562180168101   -1.59871809527390    1.93237228804667
O         5.18401439326318   -2.97806098261097    1.57502054149772
C         4.33806990738747   -3.67751697926935    2.50952046159272
O         4.33400082258538   -2.82053099283397    3.66730819614483
C         3.83565317936890   -1.65524536136111    2.97448650521424
C         2.49009592834311   -2.17674769581849    2.41202297464606
C         1.50716157549812   -1.92332838539179    3.55814016709083
O         0.15201516001609   -2.33058228755832    3.42188149522113
C         2.87011273153420   -3.64813745876584    2.07286169681297
C         2.02923167341068   -4.79072543239449    2.63160555854431
C         6.23149789559395   -1.09478513326755    2.64517910144660
O         6.34987073634890   -0.02887708108361    3.24617926748614
H         3.24373697129696    3.07371366037901    2.76959688585037
H         2.66637876606525    1.31261804598660    3.00888614398837
H         2.24988587141030    2.27907644547838    1.59276224452496
H         5.09463757155223    1.38526425626361    2.20370204522669
H         4.50888970711434    2.19507793283274    0.80002082859737
H         3.99319598310495   -1.50184435225015    0.12140479275489
H         5.33247884393776    0.23565854396167   -1.09453081872268
H         6.52612695591764   -0.89180098949961   -0.57640270242034
H         6.34956664530902    0.55638814471680    0.25610715846644
H         4.79253305889296   -4.66277367180216    2.64331624701824
H         3.84138570933621   -0.81647213417855    3.67273118401020
H         2.13034730122340   -1.57311858807440    1.57247765186578
H         1.46235591742237   -0.84370579198750    3.74148276734865
H         1.90870351222219   -2.40994125203874    4.45170755008273
H        -0.32024047990294   -1.69541322506838    2.85757597027893
H         2.84657310763051   -3.77695573908906    0.98353386548445
H         2.58794722060795   -5.47649342227385    3.27555089301764
H         1.51536179680693   -5.39169503733302    1.87200893056944
H         1.35188026205738   -4.24494815311754    3.29528760477667
H         7.03588925366624   -1.84569824015337    2.59614743792879
