37
 energy: -56.180633876293 gnorm: 0.114565216917 xtb: 6.4.1 (79825abcba525fcdf90b791dcacef51065a7a4e7)
C         2.48484469701893    2.24815066210475    1.68620990722692
C         3.33705232259370    1.34093844550647    0.81805242064910
O         4.12018462668425    0.45779995853191    1.62383713860791
C         4.78019455536081   -0.63961775875243    0.96760863643717
C         6.06203636773577   -0.23328713330851    0.22818106757436
C         5.05480580595590   -1.66827277389611    2.08699003333192
O         5.08271378746657   -2.96314704914019    1.45413606865541
C         4.33484860689655   -3.81565698549595    2.34412221114834
O         4.52772981328468   -3.21739926970910    3.64019262304513
C         4.07267813279930   -1.90414542122148    3.24708303064719
C         2.64519082127337   -2.13793560493541    2.69348000457658
C         1.55378861640193   -1.95856308477505    3.75207935660788
O         0.37871659411340   -1.64809931968873    3.01474499718546
C         2.87685015968842   -3.50738882084241    1.98965987234984
C         1.96721161371285   -4.63195859111629    2.47203261296174
C         6.35997452486323   -1.27925295420139    2.80091051393952
O         6.43130387665592   -0.36135922108229    3.61562305367074
H         2.34273554858141    3.27281174675292    1.32867316787570
H         2.95452065462976    2.32663618774852    2.67247694890577
H         1.53250868746116    1.75526692566683    1.90369615417471
H         4.12439991819969    1.89185751175686    0.29719132099671
H         2.80488535670517    0.71620900896944    0.09322450055803
H         4.16102527745563   -1.01232537839554    0.14324605087801
H         5.80127101633318    0.45922795474565   -0.57827342445108
H         6.44922155267854   -1.10159617371621   -0.31455927786496
H         6.80328711256791    0.30773100904537    0.82294859093372
H         4.68440593470622   -4.85148766355826    2.34989166795847
H         4.28910660257837   -1.21688597522786    4.06680992156599
H         2.38921101086522   -1.36156576266423    1.96523024366933
H         1.85945364321804   -1.13936837783199    4.41290907019137
H         1.30381143703659   -2.77071543612269    4.44085408455517
H        -0.34920123501747   -1.39943584562593    3.60905801393773
H         2.87730549244090   -3.41290165487102    0.89656548611940
H         0.93114350608264   -4.30018755035888    2.35542540482574
H         2.37286307429805   -4.86794477738938    3.46297719432576
H         2.13565643870569   -5.51386593293275    1.84671876597906
H         7.29136619816140   -1.77116303849417    2.47864654530416
