37
 energy: -56.179334397450 gnorm: 0.120832065736 xtb: 6.4.1 (79825abcba525fcdf90b791dcacef51065a7a4e7)
C         3.17434769590594    2.55772380544714    1.89977169376022
C         3.98995082368023    1.73136289523736    0.92257752137188
O         4.13746176553340    0.50551903221401    1.64234564274845
C         4.51749858406622   -0.67340730858332    0.91003471051212
C         5.68354063128062   -0.48636932753615   -0.06993409991513
C         4.89949787967046   -1.63714487568077    2.05539213295944
O         5.02501061619857   -2.99819680565275    1.59738931222975
C         4.33657966061354   -3.76719763549781    2.60379449667316
O         4.40529330539266   -2.98991361355584    3.81458843084681
C         3.85436593845613   -1.82125292859713    3.16886861315721
C         2.52792437726843   -2.26375858468107    2.50283879908108
C         1.37217632537617   -1.81217062008108    3.39965573244702
O         0.08894007498916   -1.91042261337834    2.79592133020410
C         2.84198980771701   -3.77065605762189    2.26820324089395
C         2.09298479924141   -4.85849903686941    3.03002477633668
C         6.28173834012443   -1.31433917787682    2.64673976930627
O         6.49871513437408   -0.48976150060006    3.53238417642516
H         2.15547252508689    2.15985457719672    1.93915866153975
H         2.99796615719317    3.60930403610144    1.64967824843286
H         3.64433052715197    2.51599154615302    2.88696624263135
H         4.92489324481933    2.20543305326925    0.61295761025534
H         3.29282091729367    1.61771471228181    0.08594256785602
H         3.62748553668757   -1.14076740607504    0.47264865846368
H         6.51421865738878    0.03773425033660    0.41300897681476
H         5.40480748856817    0.17534767714838   -0.89629871304841
H         5.96254280148814   -1.47454135129898   -0.44619936527837
H         4.80903502511913   -4.75007489423638    2.68065170237132
H         3.79273843480737   -0.88447312949992    3.72543366626124
H         2.32714974591129   -1.80462749806898    1.52943667582686
H         1.54758784820834   -0.76795356726261    3.68258422482307
H         1.38044439419667   -2.39897240767177    4.32274075683747
H         0.14516106083835   -1.50884886876079    1.91247151344626
H         2.67891790072189   -3.90248768903780    1.19125786316521
H         2.07885949722747   -4.57303595670340    4.08615814462259
H         2.65712323889019   -5.74919343289913    2.72898480736560
H         1.11966848884086   -5.07669437538976    2.58036070662234
H         7.10913598713122   -1.89118732158969    2.20404417655767
