37
 energy: -56.170802396027 gnorm: 0.131326986239 xtb: 6.4.1 (79825abcba525fcdf90b791dcacef51065a7a4e7)
C         2.76722836078047    2.51686988407763    1.84230816923649
C         3.92466162678174    1.53571196575250    1.86812744790936
O         3.51228494403889    0.38905436150258    1.12137407345134
C         4.44831706956991   -0.65381913749710    0.79452044306612
C         5.63405716700677   -0.27715357443161   -0.10387791830346
C         4.97450708239442   -1.58353582886233    1.91045419382424
O         5.08866818973270   -2.95181382881272    1.47140412356024
C         4.38963839863482   -3.77403399109705    2.42715629900568
O         4.68044958987479   -3.04879062078090    3.63726574955740
C         4.04315702561112   -1.86876694087823    3.10094013021337
C         2.65824608542042   -2.30632163005313    2.56296074235825
C         1.62412887739655   -2.05450112945882    3.66348513874909
O         0.26917828273131   -2.07820198625350    3.23407725446027
C         2.90570721773776   -3.75465718597704    2.04767626456788
C         1.96358316327899   -4.73160172737390    2.74248887876204
C         6.28875841613373   -1.16049179132257    2.58740429825604
O         6.56895444313766   -0.08957338082510    3.12219140453431
H         3.21670674411933    3.46656926740923    2.14889931952712
H         2.02362469173816    2.29412440456465    2.61491168607421
H         2.29984212872244    2.72092099919062    0.87427316413849
H         4.10008019568386    1.25784939043878    2.91059809421121
H         4.84829805193490    1.88488176380196    1.39500984473819
H         3.87731133167696   -1.31245791947772    0.12968763861670
H         5.35789984686022    0.08571875692394   -1.09886805146040
H         6.08972531377944   -1.26461977507829   -0.22924573837845
H         6.40542184012965    0.32355792336440    0.38606487897620
H         4.88978006506344   -4.74552812604444    2.39213803209164
H         3.94338578162063   -1.00306746495942    3.75800112260334
H         2.47486607100178   -1.62971913627763    1.72200630315787
H         1.89387658229532   -1.06424306949650    4.04797460907163
H         1.78035200248269   -2.64508956556421    4.57083860316746
H         0.15973168978457   -1.51577091125741    2.44883934014235
H         2.73376378720327   -3.84593463197766    0.96791366440338
H         2.33045100496939   -5.20106631388164    3.66015841727151
H         1.74599110875831   -5.47676061768697    1.96814678255679
H         0.97291744810825   -4.37449963638797    3.03949252649621
H         7.02155078218132   -1.98036061857493    2.52297983094175
