37
 energy: -56.173960048208 gnorm: 0.140538332291 xtb: 6.4.1 (79825abcba525fcdf90b791dcacef51065a7a4e7)
C         3.39992567577782    2.85695084392267    1.38436655120676
C         3.71714036472156    1.59453382917901    0.60419516663262
O         4.15870739615605    0.66536393890155    1.59625397417684
C         4.57133461871491   -0.61712036915732    1.09073704232865
C         5.76367017310356   -0.41817948417437    0.14536167890608
C         4.91013444512216   -1.52655564777042    2.29269349945842
O         5.26132182344134   -2.83626137177076    1.80348930589995
C         4.24960849546033   -3.70774344071895    2.34672590619986
O         4.27688940862395   -3.18813902882989    3.68992394882852
C         3.85073280608499   -1.84792377380832    3.36059663764887
C         2.47565512519998   -2.18873787129370    2.73460836743942
C         1.43128018467990   -2.49696387646154    3.81082562934471
O         0.07461875600558   -2.53977842065218    3.38835593069310
C         2.80746497523781   -3.45740706434192    1.89507774726428
C         2.04515068787331   -4.77027581483463    2.03662453969462
C         6.14152655972477   -1.07948673316701    3.09785628182548
O         6.58902272272241    0.06183570025553    3.19007117952354
H         3.40550639012249    3.69866313691188    0.68476156177294
H         4.26364302240809    3.02412878491788    2.03668705715594
H         2.46803062099175    2.76207183747023    1.94982928359976
H         4.55291925536734    1.82198287789313   -0.06248685199543
H         2.83674558985630    1.21092490069994    0.07825477745126
H         3.71817469827332   -1.11170074493091    0.61181779918275
H         5.52568592124378   -0.03850992977110   -0.85321685083774
H         6.24187120998861   -1.40059091420432    0.07730590634006
H         6.45509785527363    0.30752386130222    0.58260774465269
H         4.61220256055710   -4.73664693574202    2.41780301786648
H         3.80997542732015   -1.30697646489729    4.30760975246087
H         2.08105725791734   -1.40565508427632    2.07909530042502
H         1.57113239400456   -1.72919872042720    4.58036121553351
H         1.74425971578762   -3.40425269286298    4.33557460426445
H        -0.39329844400198   -2.49213954565622    4.23905557462330
H         2.92661617551111   -3.19340182772669    0.83683032509301
H         1.06195789110442   -4.49541097608893    1.64306687193177
H         2.11559700735642   -5.15023970747464    3.06272322275610
H         2.54444194228174   -5.58314937827716    1.50081072821309
H         6.43568979028925   -1.93370337270282    3.72801656228562
