37
 energy: -56.184002244902 gnorm: 0.128368774030 xtb: 6.4.1 (79825abcba525fcdf90b791dcacef51065a7a4e7)
C         3.04512832476468    2.50532384788326    1.94758326062367
C         4.19103823252723    1.56049750321931    1.63584150788148
O         3.64528478071265    0.35284486806198    1.10082087818285
C         4.44722731411977   -0.76721903492130    0.68498484178887
C         5.65992562981213   -0.39589263324327   -0.17899179392635
C         4.88340630489228   -1.53622874798000    1.95184281719638
O         5.16153096032899   -2.90669376861209    1.60190753772747
C         4.39438702404132   -3.61779315695655    2.59386454355173
O         4.49123640332789   -2.81997409672025    3.78928033514946
C         3.89740997226348   -1.68425222460912    3.12313556919572
C         2.53832546437022   -2.14544036836102    2.54085643414026
C         1.41789750917987   -1.99366514161759    3.57312159391733
O         0.13211047738608   -2.36624715109788    3.09481382624030
C         2.92474712994238   -3.60545305712015    2.16207919139232
C         2.10761343447552   -4.78092971659839    2.68679822232117
C         6.23406514981196   -1.02316729945165    2.47812496370088
O         6.33644520291338   -0.34448633490294    3.49806799125990
H         3.38547475110432    3.42146292150347    2.44034220351979
H         2.31484134236202    2.06794567117566    2.63668369750430
H         2.45361600868190    2.79704845586288    1.07454921143914
H         4.80153000609993    1.29636594620517    2.50316996207833
H         4.86396194229036    2.00358990121694    0.89441931687878
H         3.71898852119665   -1.40260200209007    0.16747929685069
H         5.25482494084969    0.28172968901779   -0.93705906276873
H         5.89433973279933   -1.33800480209428   -0.68487194909100
H         6.47668068397580   -0.05705896995220    0.46444012795453
H         4.91489881104567   -4.55668018830603    2.80057069525636
H         3.95414090404747   -0.86998876330456    3.84761856882206
H         2.17880485079728   -1.48615537320578    1.74416845633575
H         1.30594851653038   -0.90739988077304    3.66640719465149
H         1.75370456656107   -2.55045843459951    4.45272691363406
H         0.21193363988986   -3.07896627930789    2.43863888102419
H         2.88734467076306   -3.63951162536675    1.06607533783945
H         1.27574775771885   -4.94000407582960    1.99412136161869
H         1.70256099611003   -4.60245229705696    3.68993932909134
H         2.72231256294688   -5.68606344522962    2.68136316111741
H         7.14771637950110   -1.44334195160243    2.02866446500331
