37
 energy: -56.168206373573 gnorm: 0.137159093213 xtb: 6.4.1 (79825abcba525fcdf90b791dcacef51065a7a4e7)
C         3.05767202437353    2.54801866159865    1.96603807329671
C         3.27573557378940    1.25868614576851    1.19593469096715
O         4.44203353537127    0.59555966832138    1.68840920768451
C         4.77602880189049   -0.60181468981871    0.96362205428855
C         6.00734090727885   -0.46147099482384    0.05855283173364
C         5.07877670062574   -1.64954197464162    2.05777399067722
O         5.20293626765139   -3.00623454862228    1.58665613002218
C         4.28835874073268   -3.76197748200319    2.40552817028148
O         4.44177135387133   -3.00617282899917    3.62213733881680
C         3.89268044744181   -1.81179888171546    3.02362843646297
C         2.54628193233757   -2.18919977707193    2.35757004329531
C         1.34829788973645   -1.86228874947568    3.25307508815166
O         0.17402033574123   -2.07097818502991    2.47953458378876
C         2.81894680699504   -3.67536666605706    1.98154771787579
C         2.20787396356441   -4.73973060028587    2.88625889614216
C         6.30124849307521   -1.08458733229708    2.79998233882980
O         6.27066953062450   -0.19791351948875    3.65100982421258
H         2.05266113266833    2.96640808783541    1.85263055641744
H         3.76983223410198    3.32039290792598    1.65661276701273
H         3.28813112170491    2.30228831460289    3.00703938082567
H         3.40824364451240    1.51291741650792    0.14116817154387
H         2.44745954569179    0.59495528117568    1.46479195002964
H         3.93932908334208   -0.96581164291070    0.35592554254961
H         5.72942896988241    0.19565309530477   -0.77144563237038
H         6.32994603789639   -1.47569652010099   -0.19779176821785
H         6.80840858372346    0.08380167469832    0.56537627895831
H         4.67163109458200   -4.77902271076305    2.52338450909298
H         3.79842973988263   -1.07264885760013    3.82105745885346
H         2.29650179905671   -1.54231616081138    1.51035402682674
H         1.47259507428446   -0.85638584348878    3.67010811210098
H         1.27350248983595   -2.48521098313455    4.14910198622021
H        -0.55962511728232   -1.78475383633827    3.04939932547426
H         2.62743762070180   -3.90746479588971    0.92644674708926
H         1.11447873981541   -4.70599827855934    2.90759909752554
H         2.33285463040139   -4.53163644520412    3.95550648454093
H         2.65014032493495   -5.71767725068933    2.67372080597105
H         7.13497438344235   -1.79552323095919    2.68688352847224
