37
 energy: -56.184050370898 gnorm: 0.110517019971 xtb: 6.4.1 (79825abcba525fcdf90b791dcacef51065a7a4e7)
C         2.86933147720974    2.15681123000182    2.28718626811796
C         4.01344562740000    1.37091467960434    1.67370545020503
O         3.52226728740202    0.22640297376692    0.97273779322894
C         4.54840529637487   -0.74086524625787    0.68636781560813
C         5.70419028006248   -0.06462974317275   -0.06319404328959
C         4.98387048991475   -1.60648249472750    1.88954463725402
O         5.06494231797350   -2.97066750147332    1.43084075311358
C         4.30613246040876   -3.76472277446033    2.36456167053324
O         4.44379153553146   -2.99374465107849    3.57351027208458
C         3.95255062031830   -1.75275403752410    3.02136209617662
C         2.56626414443639   -2.21828684835459    2.51112350017235
C         1.40641636493598   -1.89261344129431    3.45592823399107
O         0.12758870934364   -1.82270254642154    2.83903577059543
C         2.79162558438616   -3.71376198623828    2.14072179429427
C         2.29238869212907   -4.72887419935988    3.16301955863446
C         6.32804520606043   -1.15058520250352    2.48101452897400
O         6.57966811268445   -0.23257942339723    3.25904072641530
H         3.22672857011420    3.07998651503841    2.75406161125016
H         2.34046663992972    1.59893174566685    3.06728282067672
H         2.26787205858444    2.40379946632312    1.40717382252967
H         4.59231452601309    0.95231813407098    2.50099746907083
H         4.53261259749498    2.01761890818173    0.95879050531725
H         4.06468560660561   -1.42961820685698   -0.01612061406630
H         5.36907030376890    0.66652928434645   -0.80551856222096
H         6.31300658590904   -0.79081565405994   -0.61131521436200
H         6.28017723734146    0.51305084226050    0.66510941435140
H         4.71210795073206   -4.77952670429820    2.38749064317279
H         3.97211363825193   -1.03568509968812    3.84388782814301
H         2.36134683603732   -1.70646910157616    1.56525084295282
H         1.75817291217000   -1.00085714222126    3.98719564434105
H         1.27187448463589   -2.62869561245805    4.25378300065200
H         0.12327583036191   -1.14344737743803    2.14369436263737
H         2.54431431162616   -3.95504071990377    1.09937404390619
H         2.95424974837612   -4.71557316898914    4.03415068083967
H         2.16351626180841   -5.76583020997735    2.83086312132453
H         1.32909611135601   -4.40262459446549    3.56647989468454
H         7.09122265179160   -1.86705627175499    2.13815950549673
