37
 energy: -56.179229536762 gnorm: 0.127654878399 xtb: 6.4.1 (79825abcba525fcdf90b791dcacef51065a7a4e7)
C         2.82548522285898    2.45117415146371    1.95780326710454
C         3.72700309725761    1.68759650603410    1.00533071380460
O         4.10766952858055    0.51399283230469    1.72662557926772
C         4.60256366806176   -0.59592752166619    0.95608604118260
C         5.80987751565230   -0.37569339367811    0.03474662628910
C         5.00843989161420   -1.64579932792656    2.01419323840930
O         5.20676732386808   -3.00062724442471    1.56353826656879
C         4.41520815588951   -3.77559738393216    2.48603824360435
O         4.44483021448552   -3.01709583957354    3.71025713925966
C         3.98204380849847   -1.76730680873696    3.15339183186175
C         2.61466662558203   -2.23416760092145    2.59556138078854
C         1.37580800422273   -1.99507308072732    3.46275742707094
O         0.22113472913099   -2.13378255721882    2.64524090143878
C         2.92709092656373   -3.68790918497139    2.13354688215281
C         2.00792334737840   -4.71481637048584    2.78575505221083
C         6.24639438738211   -1.26391130925173    2.84251349309038
O         6.63379746729499   -0.13054657741392    3.11959926417251
H         2.55678608558979    3.44736944248591    1.59262716699996
H         3.43281308399781    2.53518264766638    2.86531282753827
H         1.87114125593195    1.95767900533459    2.16485073300540
H         4.63096225956116    2.22753949315643    0.71199858393632
H         3.21695856477137    1.50920785013571    0.05301977673754
H         3.80064611638287   -1.07589331437393    0.38300985973204
H         5.58917484300498    0.20330193764059   -0.86747246541188
H         6.04393250498557   -1.32636930853958   -0.45502229971924
H         6.69928410989020   -0.03126252922386    0.56974661598328
H         4.82855528001731   -4.77120814330161    2.66789579877986
H         3.89789671700254   -1.03981393658026    3.96258425271754
H         2.32506955058627   -1.73433586010872    1.66554779449033
H         1.56934413481335   -0.94872185734642    3.72524528653627
H         1.39886217799800   -2.61774025145458    4.36178176424528
H        -0.53024423894047   -2.09078571713978    3.26045368550400
H         2.81256305657386   -3.81919183050974    1.05029640317617
H         1.00374422758032   -4.59487532121256    2.36820885632794
H         2.14310305702228   -4.60819886540545    3.86860910569362
H         2.35398131244748   -5.70122021507374    2.46264057574531
H         6.78109156201293   -2.17635341897602    3.15052058674194
