37
 energy: -56.182375028845 gnorm: 0.116803732924 xtb: 6.4.1 (79825abcba525fcdf90b791dcacef51065a7a4e7)
C         3.28574540777872    2.89557341753500    1.50886810769251
C         4.21310451710648    1.84459107766132    0.92712031168825
O         4.02306903449006    0.57168572867907    1.54850373145076
C         4.60352629542940   -0.60305798654875    0.95384303808795
C         5.88073565126780   -0.33212349844871    0.14742682325294
C         4.87138688146335   -1.64271517471381    2.06466310541053
O         5.06068970762363   -2.95787606895039    1.50564711882819
C         4.28626214009991   -3.83580232554066    2.34687143865678
O         4.36460155648623   -3.19474865032583    3.63443779740576
C         3.83861407449567   -1.93340834508739    3.16689020866421
C         2.41455749991050   -2.32379750316487    2.69943583063342
C         1.25899317326269   -2.17766978630130    3.69305739112014
O         0.01870596021983   -2.26662904138876    3.00413221850455
C         2.77440571211961   -3.72607316572488    2.12623139721950
C         2.12925860836160   -4.88495414096226    2.87827069169700
C         6.14395373675634   -1.21982324371707    2.81713941338353
O         6.16493471641988   -0.25779764463275    3.58227990810630
H         2.22197357435083    2.64208643886612    1.55460337688601
H         3.47404288005703    3.87792810128224    1.06277226044455
H         3.55824367134210    2.92730886734622    2.56807350965709
H         5.26006787064185    2.15615761137456    0.96608683060968
H         3.96473848059461    1.70336519153562   -0.12987242357298
H         3.83949397912126   -0.99931945815915    0.27480928515312
H         6.56371381846056    0.24484941564688    0.77876483656757
H         5.69622940324368    0.21085542458862   -0.78508131171629
H         6.41979409710297   -1.22388764225700   -0.18434789623437
H         4.72624134298539   -4.83594328691798    2.31074372431845
H         3.88863348615825   -1.21122066400278    3.98362893857678
H         2.20906026314479   -1.66033103722737    1.85314585251295
H         1.49535478245857   -1.24418195860082    4.21645083129276
H         1.19102203333340   -2.99392470422102    4.41803914423976
H         0.06205567340399   -1.66024413970709    2.24563105740405
H         2.50796353730306   -3.74112070170755    1.06201075934853
H         2.74531522019390   -5.37255422351867    3.63973429557185
H         1.86262813611023   -5.61651525121332    2.10629899459724
H         1.15875940438988   -4.62847017582424    3.31358542330987
H         7.03443972355716   -1.81580637992751    2.56187685803153
