37
 energy: -56.178667036808 gnorm: 0.116871565031 xtb: 6.4.1 (79825abcba525fcdf90b791dcacef51065a7a4e7)
C         3.27567661655963    2.65562977395368    1.79419323456698
C         3.11160228413552    1.18982501652630    1.43714241381377
O         4.42763285295332    0.70958095547986    1.15439167746202
C         4.61878686005929   -0.65017263431615    0.72415348070275
C         5.82814472702641   -0.79101818497434   -0.20997296542544
C         4.99355518996934   -1.45624794213257    1.98762032259754
O         5.23012958674039   -2.83588375180125    1.64320783409814
C         4.46256408683045   -3.62692770415422    2.57231682193185
O         4.45004588524262   -2.76550507930291    3.72674668772911
C         3.90922416775889   -1.59868083396006    3.06926976575466
C         2.60070927431409   -2.23048637911570    2.53311242146581
C         1.54014211893130   -2.17492524288041    3.63587084416511
O         0.25826136129640   -2.17020829247972    3.02137638534151
C         2.99776396695706   -3.68037940267333    2.12741706942501
C         2.07589867759425   -4.80651002834323    2.58214456733893
C         6.20453434027259   -0.91663497378906    2.76661428019958
O         6.02603205052945   -0.31319183270980    3.82272346369102
H         3.65983939835497    3.27864269989244    0.98041702514304
H         4.00607177161014    2.79159814625279    2.59887558102866
H         2.31652413940580    2.97019175538076    2.21639674620863
H         2.47331954650976    1.09627677226847    0.55477729307093
H         2.57245852827859    0.70571176959384    2.25800929182643
H         3.69592942917261   -1.01565525057554    0.25873770510132
H         5.46404214883077   -0.46986318336489   -1.19090789751439
H         6.16709846721712   -1.83002395624700   -0.27335597125505
H         6.73031234289542   -0.30528247175383    0.17219992287367
H         4.94901222343060   -4.59708520116137    2.70396574707541
H         3.73978291326291   -0.80161878200757    3.79528679732227
H         2.16764033594144   -1.64202685640770    1.71776575840518
H         1.66106103938348   -1.31357221786489    4.30269658381221
H         1.53147281283749   -3.06237694613621    4.27528071369858
H         0.05424229349685   -1.28133164262085    2.68495347771001
H         3.03005401589207   -3.77475655563747    1.03479011012715
H         1.06695067054079   -4.58261897689390    2.22297455031774
H         2.25490742929968   -4.92237657019529    3.65766516561636
H         2.37100020410704   -5.70666734536367    2.03461966803156
H         7.17380579314693   -1.25645699166860    2.36867724619405
