37
 energy: -56.174409596472 gnorm: 0.126148050222 xtb: 6.4.1 (79825abcba525fcdf90b791dcacef51065a7a4e7)
C         3.73328235052559    2.55843780246031    2.35531412930753
C         3.36191025021775    1.44387992456276    1.39467227874086
O         4.55452653879797    0.78212692362968    0.96774352845643
C         4.50004060401266   -0.62119412632632    0.65422173597117
C         5.58731889999199   -1.03411145702198   -0.34692828069110
C         4.85840384031914   -1.41350467249571    1.93108390387164
O         5.28213487277183   -2.77106974175701    1.69560249267018
C         4.43041041607985   -3.59142535028807    2.52006169685999
O         4.28841202122675   -2.77091963767875    3.69544282865503
C         3.79185970002411   -1.59184493261533    3.02502393583157
C         2.49878624045009   -2.23594642719302    2.46650043331722
C         1.38137688776921   -2.11543227800972    3.50613429600188
O         0.25874458362083   -2.83585310857397    3.01467269262727
C         2.95876056659543   -3.67868153029041    2.10405043144968
C         2.33585795760816   -4.84439498738766    2.86423948720073
C         6.02967923160208   -0.69861855874455    2.62501192830144
O         5.86487586000694    0.15266826174205    3.49651862358062
H         4.53726684905910    3.11266922059448    1.86095157938904
H         4.24020608199798    2.17873425883874    3.24880823084817
H         2.96165014203873    3.24639439956966    2.71375237360762
H         2.90017459315282    1.88118602764765    0.50569090007196
H         2.72577470521921    0.75197078239362    1.95632819585167
H         3.58504948375071   -0.86060838668351    0.09985065282171
H         5.55452813260206   -0.25376779496115   -1.11369624248709
H         5.39731007400510   -2.06509013362375   -0.66223711274534
H         6.53512479157248   -1.01788794907572    0.19832625512345
H         4.90950374501079   -4.54053568797264    2.77467505262244
H         3.62696436687868   -0.86929392124560    3.82617845804379
H         2.17278325662046   -1.72016831382380    1.55747980133966
H         1.23231909307434   -1.03732638595753    3.63527164357597
H         1.63871434141886   -2.47826295296635    4.50544506082305
H        -0.43252514460209   -2.26192625878013    2.64364710629785
H         2.97550775248430   -3.78314361550893    1.01199247386969
H         1.25957781371042   -4.69360417177832    2.73778959779075
H         2.64488183188566   -4.89561979013383    3.91499826757918
H         2.66250136712387   -5.76551652074019    2.37231385108991
H         6.98497348188084   -1.16793106556936    2.34132419696609
