37
 energy: -56.182617434726 gnorm: 0.118631015603 xtb: 6.4.1 (79825abcba525fcdf90b791dcacef51065a7a4e7)
C         3.34982670343709    2.72017844613786    1.96626263478844
C         4.29061728415902    1.55166158135962    1.73719783759489
O         3.59510223501680    0.53618497555876    1.01084745572311
C         4.37347997269279   -0.62344986603337    0.66450990069895
C         5.55948306043789   -0.42118068431967   -0.28809703710862
C         4.86184119312304   -1.44820018383022    1.87605742306098
O         5.07490221216249   -2.80968232508849    1.45302812738086
C         4.29952277359779   -3.60161194296374    2.37486600328626
O         4.39621985209296   -2.85477095737406    3.60278790353282
C         3.85243811789109   -1.65076769887903    3.01890398250849
C         2.45064660113890   -2.15895740010210    2.59988374621875
C         1.40804617925810   -2.08514263843796    3.71858907876227
O         0.17506097396199   -2.63169070905481    3.26928221479191
C         2.80084795459176   -3.57643174614715    2.05899886977769
C         2.22384025477590   -4.79570111846060    2.76979225744651
C         6.18207844633193   -1.12416370524636    2.59470768967094
O         6.24585664332531   -0.39032256307876    3.57897534838738
H         3.80415900540854    3.54048147121040    2.53074733283306
H         2.42737007707776    2.38667773883448    2.45342709385658
H         2.99137137860096    3.06778964589784    0.99268431046559
H         4.67204422587011    1.06669878840382    2.63944442975887
H         5.16569197762742    1.86812806585593    1.16017330959959
H         3.62690504124808   -1.26363143621249    0.18010441393769
H         5.17783806221879    0.14883668602846   -1.14095801902089
H         6.02880820496247   -1.40324033207415   -0.40528405125979
H         6.31405544420535    0.17840304881640    0.22864426472876
H         4.73285812053921   -4.59651713321224    2.50735357511631
H         3.82843519522468   -0.84814354416614    3.75805033354445
H         2.00943663204862   -1.60544626584133    1.76466958160973
H         1.16656543949492   -1.04162135349252    3.95087634255020
H         1.84456261151633   -2.71549756329516    4.49871518743327
H         0.41478307187443   -3.41550815803652    2.74672181149225
H         2.74507733452981   -3.71813558409218    0.97244788689112
H         2.63350869786162   -4.73052394025997    3.78222995710373
H         2.74953127924940   -5.66538866502453    2.35808086403223
H         1.14387110133550   -4.96834394288406    2.80161533093334
H         7.12606712667155   -1.52475753283776    2.19255100887399
