37
 energy: -56.178420552838 gnorm: 0.113575171948 xtb: 6.4.1 (79825abcba525fcdf90b791dcacef51065a7a4e7)
C         2.58945563956671    1.59146619300839    1.42463479927655
C         3.88251386329317    1.45807093611372    2.20770273866361
O         4.99524714220231    0.99653593458272    1.43872361304019
C         4.92130666081703   -0.37861829915022    1.02152074665396
C         6.11118600957409   -0.59849512161180    0.07768948044805
C         4.97336762626163   -1.35667255656987    2.21619924373701
O         5.28886241200415   -2.64378383387403    1.64893387538517
C         4.42858944852157   -3.57142868294799    2.33998837429861
O         4.27650377366506   -2.93363700051655    3.62256612563083
C         3.75687284221167   -1.69339654162814    3.09528047395475
C         2.49256056696100   -2.22396302910825    2.37495565663911
C         1.24778646042683   -2.34693433574002    3.25778143017824
O         0.24690816255183   -1.57397685688170    2.60845613706531
C         3.01976599707621   -3.54394651163689    1.73924425293967
C         2.10962923678667   -4.74181488227811    1.98732763435563
C         6.07779360456174   -0.91668189396964    3.19146112709119
O         5.83794048242965   -0.50186867745403    4.32361561612490
H         2.74505672277736    2.20499107724087    0.53169953417864
H         1.85286793529318    2.10157570068780    2.05448002154600
H         2.07937486483852    0.68945685368275    1.07338663366187
H         3.65527071614414    0.71197144906536    2.97348367613978
H         4.26546595787536    2.41152596138773    2.58603496224407
H         3.98528118366740   -0.62135825492741    0.50500466421624
H         5.84362827530660   -0.40343196289332   -0.96553043133396
H         6.60136949491759   -1.57219758956886    0.17800741431885
H         6.92477221941113    0.10217156352661    0.28516329836501
H         4.94285594456565   -4.53237805380667    2.42528251119566
H         3.60194696270668   -0.94322013800090    3.87268148547616
H         2.24235993267826   -1.45007665074656    1.64206887968656
H         1.41433209114828   -1.79899655270927    4.19225118818401
H         0.79696667084282   -3.31886698614205    3.47823346506760
H        -0.64660706666040   -1.75001126835774    2.94838005854387
H         3.06029232984286   -3.39426843923558    0.65308705110778
H         2.04172950190260   -4.97034323621781    3.05516226902666
H         2.47504315363474   -5.62553285340042    1.45092389905837
H         1.11450434860890   -4.46170088948144    1.62897831406888
H         7.09895494138092   -1.26411323177354    2.96821006011794
