37
 energy: -56.173900247188 gnorm: 0.125684563718 xtb: 6.4.1 (79825abcba525fcdf90b791dcacef51065a7a4e7)
C         4.14911536618618    3.04714080688370    1.00374677842181
C         3.54460419159295    1.71378821633269    1.40340460508178
O         4.58948541551192    0.89434973699105    1.93185764976536
C         4.56607559970014   -0.34997533884682    1.20958230003747
C         5.55670132641338   -0.34241987928977    0.03758412985258
C         4.86516454025283   -1.44662683495684    2.25574598905096
O         5.01025398460291   -2.68239066838871    1.52785920897344
C         4.36039806995582   -3.70172125965617    2.31322745616920
O         4.32225987818192   -3.15489148579925    3.64530727428629
C         3.75303170831281   -1.89817062270018    3.21766862600363
C         2.42995072541581   -2.40654348915935    2.59327459878598
C         1.33278726094909   -2.56720049461191    3.64892014407721
O         0.08339294068346   -2.84700455994454    3.03120866064527
C         2.90778580334328   -3.67544928077057    1.82777955050257
C         2.09594479845415   -4.92362449375827    2.15604123727545
C         6.06420111615494   -1.04437488213695    3.13038240625948
O         6.13153550005555   -0.06240388575693    3.86697749237590
H         4.78411286113873    3.34852331157647    1.84273702733057
H         3.41514133776274    3.80782886068253    0.71719142326332
H         4.72623277847389    2.81842312576494    0.10274609226765
H         3.03815109723941    1.26073636916805    0.54726581593838
H         2.75495144228380    1.74197421234000    2.16137436109978
H         3.55566274440901   -0.64272409455168    0.90100610249971
H         5.34734841049266    0.44909840914791   -0.68878679009385
H         5.58326307710865   -1.35502233137905   -0.37759147746305
H         6.53478676322947   -0.23440915115954    0.51464206272545
H         4.90379532818928   -4.64572264794380    2.21968813854651
H         3.56682413439173   -1.30380341476847    4.11386801508668
H         2.13751448396185   -1.69204397002936    1.81700467949494
H         1.17592230461411   -1.65858086369225    4.24138173449163
H         1.68636702864893   -3.31175375616993    4.36802545788408
H        -0.57360328867606   -2.99938741278364    3.73123813982786
H         2.75186266216292   -3.59491024038291    0.74473531941653
H         2.18692529360828   -5.26826851471136    3.19047317539585
H         2.47413391029151   -5.72319396056217    1.50806329484044
H         1.06277413849845   -4.64993818142870    1.92193481521831
H         6.97252330306866   -1.63302881166840    2.92603616507541
