37
 energy: -56.178069365018 gnorm: 0.123542555337 xtb: 6.4.1 (79825abcba525fcdf90b791dcacef51065a7a4e7)
C         3.34973647002672    2.71356721472374    1.82322657965519
C         4.44660638508397    2.01936742657651    1.03712715102836
O         4.92414156688740    0.83577316894070    1.68023180609705
C         4.50418640024218   -0.37554542052195    1.02684099242756
C         5.39184791082821   -0.60824590277444   -0.20315237698429
C         4.84725651405179   -1.42148307707490    2.11075728562928
O         5.00177352737798   -2.72549890811808    1.51607282488497
C         4.31191296157172   -3.65973278932486    2.37015145766920
O         4.28940383672078   -2.94405436546375    3.62003613397359
C         3.70880963684425   -1.72868138673020    3.09847908067801
C         2.43295830724273   -2.35148290571284    2.47946709352375
C         1.29289062099507   -2.23932677253531    3.49516022883364
O         0.01794733085770   -2.54090051626866    2.94342039161039
C         2.83802802484490   -3.76464144614648    1.96630785693645
C         2.23368572540588   -5.00378362031124    2.61752208347237
C         6.12653077707368   -1.06526014617100    2.88602940115230
O         6.00886048202061   -0.71579224111686    4.05880354790588
H         2.39122571998371    2.18535721942594    1.83769075382851
H         3.13458608442829    3.71058524799405    1.42429862390671
H         3.71574361292585    2.88365208454646    2.84022629914718
H         5.29209927567793    2.70136023277385    0.91566965327341
H         4.09161954656576    1.72144667172052    0.04511322276825
H         3.46117904042641   -0.23900535221087    0.71805676856654
H         5.16339953960228    0.08172099649615   -1.02150534777010
H         5.35601376969331   -1.66241125639787   -0.49622465896708
H         6.38473867969016   -0.28156432978287    0.11832668964646
H         4.99283927206917   -4.50078728043409    2.52550754220922
H         3.53936421749623   -0.97774030365750    3.87210350167959
H         2.08350247643820   -1.73829181911812    1.64250782096870
H         1.33083121450187   -1.16601148509921    3.71370495974275
H         1.52748443386997   -2.85593429416514    4.36765754847059
H        -0.35852489187431   -3.30439017071890    3.41273698468970
H         2.71185791527924   -3.85027063934595    0.87978491047254
H         2.47992729140562   -5.16229764904707    3.67172546949489
H         2.54588919567381   -5.93063377866967    2.12184928302737
H         1.14484265500511   -5.01215597327362    2.51027332612334
H         7.09960190532636   -1.26641983992831    2.41064807800593
