37
 energy: -56.166350646448 gnorm: 0.129623833389 xtb: 6.4.1 (79825abcba525fcdf90b791dcacef51065a7a4e7)
C         3.60054207162456    2.77602345305012    1.21313078682898
C         4.18184258350395    1.76143210856281    2.18043807035700
O         5.01078967799838    0.80025274044746    1.52355167295583
C         4.46967065928641   -0.46434006367787    1.10097640843106
C         5.44917778678265   -0.95808800587822    0.02777795565982
C         4.71501258887829   -1.42182755839043    2.28823468685363
O         5.22753509176842   -2.71908496217813    1.92433045652521
C         4.30982521135256   -3.63137483181776    2.55969383767525
O         4.18193171704946   -2.94464756689454    3.81944098776140
C         3.58600179680743   -1.74365371213682    3.28211041524549
C         2.34689335012939   -2.23839049341534    2.49553558898901
C         1.27154526855402   -2.62336601715750    3.51503851464843
O         0.06849697876963   -3.00526455269894    2.86107193932914
C         3.02415522393816   -3.42725825091914    1.75233928143089
C         2.22762849062548   -4.69578095205455    1.46742135436729
C         5.86934234110081   -0.69598902534503    2.99898465455527
O         5.82640741086331   -0.14944162888807    4.09935542823471
H         4.41128138944588    3.35533427179833    0.76029681914100
H         3.00489609236736    3.46014405313353    1.82685958034627
H         2.94924688253410    2.33642412259416    0.45172056596908
H         3.45577512046481    1.26541507683354    2.82968184424509
H         4.85012663654642    2.30427346784889    2.85688743725885
H         3.48317016140507   -0.16689672588395    0.72654423933691
H         5.72101063429785   -0.04395231286694   -0.50925780610898
H         5.01552607784034   -1.68520338141360   -0.66626056244773
H         6.40331287071850   -1.22153721745647    0.49266769527085
H         4.83836248190393   -4.58779704552001    2.59246129584530
H         3.48152267770145   -1.13706774641420    4.18336319145281
H         2.03534835174270   -1.50802405003688    1.74179287975694
H         1.07816581705727   -1.70898230630198    4.08750144652130
H         1.68029076362154   -3.30065592310738    4.27048286337684
H         0.42567167694390   -3.54057608936562    2.13252980164111
H         3.31715217425243   -3.07126291458991    0.75674725650103
H         1.74046081670655   -5.11950002750803    2.35073114489876
H         2.89385564406502   -5.50980946072857    1.15804664080793
H         1.46747105756128   -4.43876527486938    0.72361005977627
H         6.84304670439831   -1.00272462919814    2.58530224569740
