37
 energy: -56.172807286549 gnorm: 0.134826741922 xtb: 6.4.1 (79825abcba525fcdf90b791dcacef51065a7a4e7)
C         3.29997887378673    2.33586472735871    0.58621598450823
C         3.52085257306106    1.82226669073955    1.99703883882181
O         4.56685593688073    0.85397146232954    2.10096243083196
C         4.60288131515818   -0.33255627119207    1.28767975268687
C         5.72885537905969   -0.30784371207090    0.24530369983322
C         4.89333440840367   -1.42327873443314    2.34243977645822
O         5.11799265585262   -2.71862667599732    1.75118281982651
C         4.35691163366203   -3.68757377487534    2.49954640430701
O         4.20669346313491   -3.07002251354403    3.79220989912383
C         3.73336013221060   -1.80631381686597    3.27719655992662
C         2.43531467292247   -2.22088876748649    2.54094946306902
C         1.20312493638546   -2.21230758246190    3.44957517685313
O         0.07307007538155   -2.57135030962881    2.66541428910972
C         2.94028380643207   -3.56138774737165    1.93062199938992
C         2.16221544219056   -4.78675871027372    2.39737519438337
C         6.13650978290865   -1.21913915796419    3.22410087916103
O         7.17719088988548   -0.76984824267379    2.74818720895678
H         2.72466424488032    3.26697235673311    0.58930271082755
H         3.10110286658184    1.52129292887387   -0.11834010114568
H         4.27547154802882    2.73764638253224    0.29610554947878
H         2.61234388629229    1.30987131650159    2.32382207347428
H         3.81946130174788    2.66600756770447    2.62775131010877
H         3.62879051194241   -0.53509666126617    0.82726717771985
H         6.57881445740158    0.27117710570003    0.61980205737032
H         5.32693639220890    0.06170206056104   -0.70355724192924
H         6.10652615826320   -1.32224798115491    0.08957807214554
H         4.78443753579248   -4.69260925653216    2.45164970704018
H         3.51625217134267   -1.10507693201177    4.08481649924191
H         2.25177995830563   -1.52505967489609    1.71586740938188
H         1.06551917134921   -1.19152077882478    3.82409613003455
H         1.18709147586158   -3.01392067879078    4.19365181048413
H        -0.13180912419685   -1.88240029246883    2.01098458399068
H         3.05100238043266   -3.50070891630795    0.84073996394104
H         2.38626083473432   -4.90302150647771    3.46198451933934
H         2.39688352902066   -5.68287959032814    1.81076458470281
H         1.07717773591234   -4.81730945505237    2.25985628266747
H         6.14468667543107   -1.84124856209144    4.13307452127845
