37
 energy: -56.179082056274 gnorm: 0.124843040741 xtb: 6.4.1 (79825abcba525fcdf90b791dcacef51065a7a4e7)
C         2.63559325581241    1.99978406243086    2.23989746549100
C         3.91441008280827    1.35149471560236    1.74256688371469
O         3.61375560235902    0.19490818563842    0.95870893964468
C         4.65541562288796   -0.75841227882698    0.68176296443272
C         5.81844258581287   -0.18415229299219   -0.13834061379697
C         5.08261954748037   -1.58355575443257    1.91593970970516
O         5.20777307106323   -2.96868381354055    1.53681009847922
C         4.30949385467870   -3.67855290907181    2.41278451653227
O         4.22835616709025   -2.87143789490427    3.60311892654937
C         3.92958876947321   -1.62722257206025    2.93311210487707
C         2.55279558837333   -2.06039149194119    2.37127632294272
C         1.62904967227763   -1.77101673673652    3.55741360186859
O         0.33124335788401   -2.35025405024826    3.58945857249109
C         2.85302520269915   -3.53223326787377    1.96142885452099
C         1.89777499030939   -4.49667229585283    2.65578995219575
C         6.43181472592362   -1.26688738767807    2.58218122523562
O         6.80498823796219   -0.27934749654715    3.21216518108988
H         2.89212035842009    2.91786104510400    2.77775094760015
H         2.09292874589109    1.27989082391095    2.86178741927312
H         2.04474403985552    2.26367203292659    1.35760564118849
H         4.54962494142005    1.22069729270253    2.62240689704297
H         4.36626946895497    2.12821691146108    1.11695535449200
H         4.19786469239178   -1.49834089220530    0.01467373099172
H         5.35229715463967    0.24828583575275   -1.02921112374392
H         6.56241158976138   -0.96453546352531   -0.32795143704227
H         6.41334384814043    0.56918952189464    0.38555852104607
H         4.72056446285983   -4.67514626834342    2.59442000121952
H         3.92132536468693   -0.81136877066762    3.65797989123865
H         2.35496934591837   -1.37316168038596    1.54229894574713
H         1.51440769069793   -0.68832387547733    3.68327218902009
H         1.98844552809725   -2.16265607873607    4.51341774510862
H        -0.19600690297903   -1.90303163118647    2.90615401102427
H         2.71314634077404   -3.73663197963528    0.89257972705964
H         1.78145000875313   -4.19955649124917    3.70235437547102
H         2.34175525291121   -5.49730982220829    2.71759466342415
H         0.88277590031825   -4.61277019115228    2.26406331798498
H         7.14048809164475   -2.06339350871017    2.30526949090049
