37
 energy: -56.172276293779 gnorm: 0.123044340730 xtb: 6.4.1 (79825abcba525fcdf90b791dcacef51065a7a4e7)
C         3.51472894158350    2.89362981971806    1.11726092352406
C         4.17555045587703    1.64187204000371    1.66444155947696
O         3.48970232801582    0.54264675380821    1.06125426871393
C         4.19116838451636   -0.68318161725087    0.78581869799994
C         5.37120848554662   -0.47869452164030   -0.17369500030969
C         4.78127009358883   -1.48650820025287    1.96607442297133
O         5.14588937518038   -2.82897401839229    1.58815814847468
C         4.41382842237689   -3.64225099109866    2.52667729720013
O         4.49214721342888   -2.87832658009274    3.74536496701865
C         3.86575486264785   -1.70473823749021    3.18272308512503
C         2.51127593979794   -2.31786977837310    2.74877517461116
C         1.68901907685978   -2.56692715833069    4.01598864730931
O         0.32665728482758   -2.82641536058026    3.70377045788573
C         2.92618587639016   -3.70096420264242    2.16625432557143
C         2.26014443573126   -4.94835746560412    2.73650144996542
C         6.06979762626525   -0.78000645463355    2.41888385884996
O         5.98908881330362    0.22988514475285    3.11528774350561
H         3.99063327865296    3.19541671056265    0.17896587245750
H         3.53140081983653    3.73672265236964    1.81611332803707
H         2.47317050946606    2.72491345078697    0.82765888944525
H         4.01212935271804    1.62793565880119    2.74510045722681
H         5.26261240169221    1.68737822809089    1.54160195585306
H         3.42698955050305   -1.23701235299554    0.22800379080361
H         5.18765179621595   -0.17461427369963   -1.20896631916859
H         5.92312033240202   -1.41485650167239   -0.30573325226661
H         6.04503768079346    0.24916561536087    0.28682161162098
H         4.82576436947869   -4.65452061459139    2.49860945910474
H         3.73061029882298   -0.91019493646379    3.91862790300118
H         2.02303730103455   -1.58530041403928    2.09793826507983
H         1.77835644187823   -1.60578515787207    4.53505694014853
H         2.15008396187649   -3.34714403863829    4.62850107009706
H         0.11644856587136   -2.52042815522732    2.80538859147942
H         2.78218448384682   -3.86411263469951    1.09088017063592
H         1.29077256381536   -4.60996670724382    3.11454412316319
H         2.88834463321608   -5.28659771815538    3.56907084547484
H         2.03684402706003   -5.70951761078902    1.98289426458881
H         6.95026185771200   -1.41536031953693    2.23333529687864
