37
 energy: -56.173691216091 gnorm: 0.128045470619 xtb: 6.4.1 (79825abcba525fcdf90b791dcacef51065a7a4e7)
C         3.62357298786237    2.90225455995348    1.76083611877965
C         4.60694995688710    1.91207443737906    2.35707627488805
O         5.18550851103751    0.96999435975641    1.45138652061242
C         4.48005513821734   -0.25504254842232    1.18269576692527
C         5.06765659705315   -0.64032759375782   -0.18158283836541
C         4.75298686281414   -1.31868837455176    2.26930657051996
O         5.20286052635505   -2.57307938542088    1.71967096857248
C         4.50634678276892   -3.55584511653624    2.51162487537819
O         4.03434781780724   -2.93626220980954    3.72333770284885
C         3.49771240437303   -1.79427618848902    3.02039160009882
C         2.50911035503027   -2.47714759606396    2.04304475720360
C         1.18115791235831   -2.48993888735170    2.80484827484364
O         0.14577963017552   -2.99971446931430    1.97480933306163
C         3.19163196556886   -3.85238709901945    1.78360007498338
C         2.38366030721225   -4.96239052185631    2.44681733971098
C         5.89334768829528   -0.92369880103574    3.22222036316568
O         5.67566887340111   -0.49114719339729    4.35221520916721
H         3.98069909672412    3.35903839469361    0.83252187295127
H         3.43722688514788    3.70586680374467    2.48122535482191
H         2.68211050059965    2.42405135047470    1.47422035682989
H         4.07405552211628    1.47060446491871    3.20315672043647
H         5.53506831058686    2.37251535317894    2.71127191225743
H         3.43025899205836    0.02337119469193    1.03346747811956
H         5.00202276135265    0.07730963722960   -1.00537502316202
H         4.37908396470914   -1.39956200143096   -0.56612267855428
H         6.07451185238146   -1.04615197367389   -0.04948143434624
H         5.20588030111984   -4.37235175852766    2.70945960278022
H         3.09659150719268   -1.08134969069595    3.74285741447402
H         2.33026471574188   -1.92147411999996    1.11683487365457
H         0.84494084642491   -1.49643471788177    3.12283341252329
H         1.31244952912268   -3.08957455601821    3.71021574253371
H        -0.51251675893757   -3.34849790648110    2.59923053035385
H         3.35723568294223   -4.04356623925309    0.71598154243095
H         2.43163194246221   -4.97560688138202    3.53980885075416
H         2.52377542207525   -5.91970858587977    1.93094561810950
H         1.33396942246933   -4.77552808450427    2.20108759505284
H         6.93102569400724   -0.95737465739579    2.85423892040534
