37
 energy: -56.179585284525 gnorm: 0.117372226262 xtb: 6.4.1 (79825abcba525fcdf90b791dcacef51065a7a4e7)
C         3.42000107922943    2.11408523048578    0.19706750525585
C         3.29077178698736    1.65675479517417    1.63829542643163
O         4.32765000792267    0.85488507877795    2.20786308022845
C         4.74682927455395   -0.30175076303272    1.46150065940830
C         5.93226903459884    0.13693715683894    0.59129285825514
C         4.99835337100707   -1.49527038709828    2.40955325121455
O         5.16969735908478   -2.71600853204245    1.66227684912115
C         4.34197619524467   -3.68343856378780    2.33837422910743
O         4.29503198046873   -3.23808087531697    3.70744936906143
C         3.85463492674283   -1.90944880698326    3.35103653242114
C         2.51793000780750   -2.23185339150281    2.63820454936640
C         1.35565236558152   -2.35865873952964    3.62663611827118
O         0.10863021700440   -2.36592621101048    2.94419424338665
C         2.92880730452100   -3.46946998545690    1.78737203226588
C         1.82357889683543   -4.51981926282122    1.79178597917456
C         6.37800473711731   -1.34036201853917    3.07065064273123
O         6.60275641874269   -0.89599281016609    4.19465953443834
H         4.34883592763421    2.67965553525602    0.07315655992818
H         2.57607226479920    2.79058209487184    0.02497942275652
H         3.42786164976915    1.29963017444807   -0.53353477462034
H         2.29895498676632    1.24240628782828    1.83663625194091
H         3.20354193415277    2.56156265104681    2.24868690656605
H         3.93078436282315   -0.67108850128952    0.82942820821265
H         5.61327720958485    0.79865902438439   -0.22007200749187
H         6.42077838625575   -0.77565283005933    0.23495289787989
H         6.63991705282612    0.75030828893229    1.15601566268952
H         4.64960001977145   -4.72736723807363    2.23469532254571
H         3.58974342538487   -1.31544133740585    4.22745345030994
H         2.22435867097829   -1.41374183488519    1.97252229411573
H         1.34482758166991   -1.44035544932210    4.22480740181052
H         1.46619449944418   -3.24870091905165    4.25281183006914
H         0.08456938814928   -3.08273697785252    2.28806220429648
H         3.11024514392787   -3.17372994429935    0.74650627819110
H         1.44445836987275   -4.76957531618740    2.78727376302404
H         2.17905551265281   -5.48586466407894    1.41415334167740
H         1.01641484383834   -4.14601808952776    1.15467492070445
H         7.15885385486334   -1.70284590332721    2.38348243887160
