37
 energy: -56.181327773751 gnorm: 0.118640191177 xtb: 6.4.1 (79825abcba525fcdf90b791dcacef51065a7a4e7)
C         3.15102590827350    2.33248445989223    2.06538128831525
C         4.28606375865012    1.48732698302691    1.51730539569770
O         3.68680649522429    0.30420818891792    0.98472727348808
C         4.57387798608654   -0.80631201093314    0.76017516477879
C         5.70244056396862   -0.35860503770280   -0.17837749722593
C         4.94105871954388   -1.54163424149987    2.06824118383399
O         5.15388526637712   -2.92334285813026    1.71671797533486
C         4.30874571733383   -3.67335838336455    2.61190885970782
O         4.26438494123234   -2.86660241420775    3.80442338890841
C         3.84816849860694   -1.65072602337418    3.14514247126415
C         2.50023922117560   -2.11412636677605    2.53917135556866
C         1.37263381968162   -2.15573826507373    3.57393722422209
O         0.10947581384554   -2.66308497217893    3.16421153553483
C         2.88173765828390   -3.54870281356832    2.06919227346413
C         2.10060802336378   -4.74464466095732    2.60243005051049
C         6.21929552929378   -0.98056352325478    2.71306252681067
O         6.45954444387641    0.18210513464830    3.03221038075842
H         3.58659928043393    3.29431069608691    2.35369361645284
H         2.59110052659091    1.82277313470049    2.85668154279736
H         2.34197460919126    2.52572124209886    1.35455496500902
H         5.01224099820767    1.26775780777148    2.30418552029039
H         4.78619162556827    2.06908883988831    0.73609523090672
H         4.03639041977859   -1.51186414790324    0.11584718297959
H         5.34558815855774   -0.00129885416762   -1.14942497692713
H         6.42456849877158   -1.18128839407726   -0.19115950253295
H         6.20394871891404    0.56270373135145    0.13078496361224
H         4.67990380677446   -4.70053887799950    2.65997882327711
H         3.73566363936372   -0.77325878580476    3.78429262058401
H         2.06812414599279   -1.50306537767348    1.74010656172114
H         1.36839857274709   -1.12218829496942    3.93857885494418
H         1.75439337246011   -2.77971141445290    4.38720706035053
H        -0.36348853364847   -1.93017886700387    2.73519030110012
H         2.77994075679449   -3.54012546530451    0.97678794988461
H         1.01508001184272   -4.68432019912301    2.47956309921452
H         2.32835973855034   -4.82188825283645    3.67218532085699
H         2.47626437578924   -5.57018731130622    1.99045515861975
H         6.98359837865181   -1.77246217704644    2.75842471064583
