37
 energy: -56.172263584143 gnorm: 0.127399530625 xtb: 6.4.1 (79825abcba525fcdf90b791dcacef51065a7a4e7)
C         3.05535752842680    2.62224642578561    1.92567125077344
C         4.14270508500026    1.62395011415513    1.57343691799741
O         3.55275443016452    0.34526300218259    1.32964133074871
C         4.41198984570006   -0.72977660497172    0.90942838807998
C         5.48962266351968   -0.47349466855440   -0.15264656610121
C         4.97198289690299   -1.60821738120447    2.05017673096968
O         5.21160283558530   -2.94255741853346    1.56017534773645
C         4.44169299392911   -3.73730769473152    2.48416761068990
O         4.58872724754281   -3.00413076391500    3.71532417843806
C         3.92470049943532   -1.85277485717850    3.14991201256366
C         2.53587065826148   -2.26219867520866    2.60002290178883
C         1.47218717501785   -2.16799832138475    3.69714169309950
O         0.22329935816897   -1.81349390828394    3.11796139563246
C         2.96794451825790   -3.66228205345828    2.07323101254613
C         2.15025854939764   -4.88416369889273    2.47718377710712
C         6.26676812907724   -1.08562299265190    2.69431225377786
O         6.40205323370232    0.04631925834970    3.15450567958261
H         3.54064229994222    3.58445182528924    2.11702779798152
H         2.39881335649697    2.42386697704068    2.77952926152086
H         2.37230429151180    2.92834324096321    1.12759761166586
H         4.88305925919015    1.54277892455070    2.37344396028901
H         4.60887519741401    2.09155725892724    0.69999943157735
H         3.69533523985484   -1.29095909957568    0.29841640956250
H         5.08178441934396   -0.04877698936228   -1.07526643314153
H         5.75896779035316   -1.47499454713353   -0.50320502891705
H         6.29460523263779    0.16410751642941    0.22334309166195
H         4.84399551694481   -4.75382232130731    2.48858498412345
H         3.89443843632091   -0.93090926277420    3.73332187338077
H         2.29145270807549   -1.51834130198203    1.83480424032509
H         1.75032290965877   -1.42394401766733    4.45227790830688
H         1.40030154252919   -3.11178923429261    4.24539514028569
H        -0.26558549737229   -2.57672869922156    2.76672058872463
H         2.81001115806280   -3.54774036732078    0.99354557446121
H         2.03921338091405   -5.06891532993071    3.54986369066022
H         2.48899294404808   -5.76030615464816    1.91163346041865
H         1.12938531810081   -4.77003591708156    2.10042878341247
H         7.08520200128095   -1.80987848647257    2.83193501655661
