37
 energy: -56.181806526555 gnorm: 0.122209076383 xtb: 6.4.1 (79825abcba525fcdf90b791dcacef51065a7a4e7)
C         3.48093985640930    2.69395507758251    1.67386834393844
C         3.98185565650309    1.65196710774962    0.69084560861899
O         4.67241259070996    0.66102490431893    1.45483741250346
C         4.69571137985340   -0.68368830006295    0.94319478904758
C         5.85976835397362   -0.90005672378505   -0.03309011408739
C         4.91576874085640   -1.50767513127020    2.23128549054183
O         5.18884707737048   -2.86380695477220    1.82592503869604
C         4.21595144630072   -3.64809746667390    2.54461367944629
O         4.17350757068334   -2.94604190538383    3.80168587274230
C         3.74674534525821   -1.69817132009650    3.21267324840135
C         2.37736322775695   -2.18933664413779    2.68125678501394
C         1.43965734971666   -2.41045388938483    3.87112265304722
O         0.10919131009151   -2.84633043409923    3.62471700552582
C         2.84230966372439   -3.45094703876358    1.89602112098720
C         1.83547494977864   -4.59594577851006    1.90270873195121
C         6.12692363533053   -0.90323786202782    2.96083580456631
O         6.09709333519530   -0.04334046370115    3.83893597728714
H         2.99340602792522    2.28413766944591    2.56399099096541
H         2.91287136973919    3.34725780743415    1.00306889642786
H         4.27360935197391    3.31354339617301    2.10394264766816
H         4.62815295320955    2.18176103425016   -0.01367020757787
H         3.13600945022148    1.20161532214645    0.16113670044231
H         3.78074171016913   -0.84889361834510    0.36233943979907
H         6.82431449566136   -0.55720762421592    0.35427250111876
H         5.54600449973710   -0.31881815052113   -0.90610443729649
H         5.89401863088903   -1.98055113644967   -0.19819752726629
H         4.58069418840664   -4.67098709746821    2.67042453911637
H         3.74114633921161   -0.93339493570050    3.99126476511242
H         1.88588187920523   -1.43428283895972    2.05919298289478
H         1.49078560213738   -1.48415147862103    4.45469506129096
H         1.82555202995224   -3.24233004919515    4.46740952772359
H        -0.26546446234073   -2.20924358001095    2.99332232095433
H         3.05617044262335   -3.16771163802393    0.85783776190433
H         1.41027211419501   -4.80203221605283    2.88954070114294
H         2.22865581946155   -5.51780056762789    1.45795450923262
H         0.99235088755944   -4.33017253091669    1.25799326133281
H         7.05519598135877   -1.23269647813866    2.46779674169848
