37
 energy: -56.176326639012 gnorm: 0.127774573475 xtb: 6.4.1 (79825abcba525fcdf90b791dcacef51065a7a4e7)
C         3.40139603834478    2.77783097469279    1.77875478791570
C         3.31238937813499    1.37166254639014    1.21505501608227
O         4.59934797797755    0.75372238996667    1.28143524215521
C         4.64726268582322   -0.61934502634279    0.85369156509753
C         5.62327970555391   -0.83180230693410   -0.31131007418133
C         4.93791229709657   -1.51152665261071    2.08092094355750
O         5.31426224849373   -2.85294019912044    1.71084959579297
C         4.39463109155517   -3.58195118348831    2.54809052906522
O         4.31533128140279   -2.86222469463614    3.79332917869667
C         3.82308611809592   -1.67878176071578    3.12744602321412
C         2.45796271445252   -2.19351952101264    2.60750630145929
C         1.37468329327589   -2.12541161758786    3.68724371637466
O         0.16157663394420   -2.56668174856230    3.09184731660368
C         2.94141384892657   -3.57017625046111    2.06388676182110
C         2.29840969921166   -4.86824412517125    2.53964760168252
C         6.14744121321456   -0.85128700732352    2.76327545630596
O         6.22419580451053   -0.26997780293138    3.84381311986281
H         3.97539479029062    3.35747243247016    1.04902944017257
H         3.97206739832460    2.85644022270346    2.71022295473250
H         2.43261642346376    3.23989757982887    1.99121426754853
H         3.03749804417983    1.28352650489690    0.16082964545602
H         2.63850083632158    0.71559634118620    1.77569343075104
H         3.62676990232588   -0.93809992532124    0.61111158886367
H         5.33066208781032   -0.18872761733729   -1.14723736463206
H         5.67537318716945   -1.90139850618422   -0.53866503595852
H         6.61098673690298   -0.48694233244487    0.00713635577521
H         4.75500297542410   -4.60202250097939    2.70542910402576
H         3.93739258800074   -0.90195934317368    3.88546974767707
H         2.09529261341329   -1.66852611303539    1.71785702924103
H         1.36745081568033   -1.07185210039230    3.98918249880654
H         1.59907783927323   -2.78796799739280    4.52816987139691
H        -0.21663408270690   -1.90809184191720    2.48511686565475
H         2.70395401696488   -3.63647240321888    0.99477450132506
H         1.22717990153024   -4.70597854362289    2.69210412503992
H         2.71807924502876   -5.18709349637730    3.50111850637624
H         2.40427901912024   -5.70456681706041    1.84214658591582
H         7.08106256121385   -1.00402612219855    2.19905741855156
