37
 energy: -56.181958798349 gnorm: 0.115723319308 xtb: 6.4.1 (79825abcba525fcdf90b791dcacef51065a7a4e7)
C         3.26203501605959    2.51615509911158    0.98321590309442
C         3.54877528097216    1.27653536415560    1.81032665592549
O         3.30722332929321    0.17325778141405    0.93456982357270
C         4.39665027600231   -0.72207592393199    0.64803698753303
C         5.54308016755721    0.07004395963051    0.00521451959994
C         4.81709162766328   -1.53992510230531    1.88937053192713
O         5.14970409128795   -2.88798900098469    1.50197527924687
C         4.50077264461634   -3.70528619868884    2.49649231365360
O         4.65585835499410   -2.90767290538813    3.68589360470996
C         3.97680705008209   -1.74585303874464    3.16119675965749
C         2.57300353671859   -2.24188017035367    2.73440993271653
C         1.68950912555627   -2.18211412072716    3.98334209329451
O         0.30179135916639   -2.36415764324589    3.73445752658242
C         2.99575163434666   -3.64830695064013    2.21703315309753
C         2.21843989209016   -4.84862792145758    2.74599340800250
C         6.14239723263720   -0.95522535750122    2.40529258135359
O         6.24678066807157   -0.19570117768531    3.36633391117436
H         2.89265436612552    2.17477835385833    0.01111625668750
H         4.18513823967784    3.09902395713074    0.89590901111886
H         2.51826854704130    3.17619347863831    1.43965790050380
H         2.90974771864237    1.13404206239586    2.68557734554230
H         4.57337710206920    1.22246524887893    2.19259827587160
H         4.12247179202772   -1.37222201905480   -0.19100499835983
H         5.11752312801055    0.41933339481735   -0.94074671802294
H         6.40538968729202   -0.58110929633096   -0.17046064457024
H         5.82463351617844    0.91810563515818    0.63562772858454
H         4.92686328103546   -4.71206606110367    2.49334690918283
H         4.20048555625244   -0.96969607026360    3.89513633443413
H         2.17328755592303   -1.60563779240806    1.93813969637059
H         1.84939510420810   -1.21824538229234    4.47993098307379
H         2.00113900259098   -3.01619182704826    4.61870960363160
H         0.10799237222461   -1.80088316199993    2.96629760550990
H         2.87291628973350   -3.49073849014942    1.13820645490348
H         1.13963513141791   -4.74257894356384    2.59753367030522
H         2.50718845908309   -4.91283170194998    3.80179447511371
H         2.54057308593957   -5.79787522430924    2.30746018164133
H         7.00245638183380   -1.49592891897318    1.97954854889341
