37
 energy: -56.176882532035 gnorm: 0.127263026909 xtb: 6.4.1 (79825abcba525fcdf90b791dcacef51065a7a4e7)
C         3.71992608038286    2.53643701250669    2.37160137849076
C         3.50631473541636    1.33556825328070    1.46867630764545
O         4.72140363651133    0.77444470628704    0.96745964992637
C         4.60925547318826   -0.63090523654119    0.67938163919120
C         5.54788590554976   -0.94128011417081   -0.49433745108403
C         4.91128683251249   -1.40078130885286    1.98422841560867
O         5.19729409185051   -2.77308756058993    1.64813646526971
C         4.48474935498346   -3.54753589371397    2.63335757622172
O         4.26540475542265   -2.65146404693340    3.73963835710477
C         3.72946104814045   -1.56347953028917    2.95522972652534
C         2.47642511274865   -2.27377282440259    2.38581021565613
C         1.36527120223015   -2.21433403894182    3.43736615558542
O         0.05338861694791   -2.72611160161818    3.24270808383686
C         3.04668087526807   -3.69954455687884    2.12810050079842
C         2.23794785317188   -4.81622170082005    2.77907360663306
C         6.09947214793524   -0.70546765853021    2.66923853263083
O         5.90909308100993    0.16604999612407    3.51516175720168
H         4.48822789133493    3.13067717319628    1.86707305544558
H         4.17588613717931    2.16747495182994    3.29650439257851
H         2.77630685626315    3.04806145187636    2.58373745209646
H         2.84025036315967    1.60772298887520    0.64586746610278
H         2.93883264963271    0.60667980983340    2.05651113440932
H         3.61343403284356   -0.77237706527230    0.24328459772255
H         5.04418962035110   -0.48429058502545   -1.35188931104244
H         5.57313449972089   -2.03553660870504   -0.51446897461234
H         6.52975934797247   -0.53681148984696   -0.23312605774737
H         4.96799518546056   -4.46023049376711    2.99200900543713
H         3.54963651951423   -0.78959923654133    3.70348866281096
H         2.21867589932035   -1.80979067943563    1.42825633920308
H         1.33686895162961   -1.17392320907837    3.78079825854007
H         1.61949508815767   -2.75642820262861    4.35278671591360
H        -0.38830488142854   -2.39208033969564    2.44381145799938
H         3.13172649832465   -3.88064796042591    1.04932703958403
H         1.26721969542671   -4.71101377181399    2.28538896126168
H         2.19667901836605   -4.77566074079687    3.87400074716139
H         2.76007108958119   -5.76250837881880    2.60854361525729
H         7.07894026133140   -1.09521907922172    2.34977633253046
