37
 energy: -56.178649437821 gnorm: 0.115202666460 xtb: 6.4.1 (79825abcba525fcdf90b791dcacef51065a7a4e7)
C         2.30769669685535    1.55366748763385    1.73128903644923
C         3.56004262555179    1.26933861480427    0.92272485369739
O         4.42921241268774    0.45691314922502    1.71457557241925
C         4.92033342410122   -0.69904465943698    1.01233891569823
C         6.12565752301256   -0.25801743633124    0.17111067566335
C         5.18052999700646   -1.66786819980545    2.18717333370511
O         5.29961413937021   -3.04344374172220    1.77293512436616
C         4.24926911697216   -3.73167543550185    2.48093465070856
O         4.29735027607041   -3.08185663284649    3.76558935083109
C         4.04799007063039   -1.76655133625245    3.22334003145419
C         2.63990733614015   -2.00306375095080    2.62315747074547
C         1.47799199035961   -1.88215546412328    3.61275324940375
O         0.35433005911198   -1.60436409002879    2.78748978169466
C         2.89300862475268   -3.34824484287921    1.88095902438098
C         1.87076765849509   -4.46226151854648    2.07786808610754
C         6.35003277962428   -1.21246763920145    3.07563147127316
O         6.52575700701118   -0.08888501284069    3.54259655556985
H         1.60186405891357    2.22580661034912    1.23330594715782
H         2.56588893551177    2.05122632109049    2.67216635942393
H         1.81509688077102    0.63660728469977    2.06822304609534
H         4.08557133874293    2.20253356842933    0.70434195379147
H         3.27413053762835    0.70997550872584    0.02593543577330
H         4.21217771653089   -1.18200421100793    0.32887654036074
H         5.95754245919068    0.49009288551413   -0.60992250524555
H         6.35627213132903   -1.21259089577415   -0.31267280907469
H         6.91063747907530    0.15332903681444    0.81181517824676
H         4.34300116869363   -4.82081371857378    2.46824938238862
H         4.07476462419077   -0.95579041813988    3.95345569111300
H         2.40727065473649   -1.21941374872333    1.89487430567928
H         1.70626022213516   -1.05461315552485    4.29413004515295
H         1.37448748877717   -2.76006179841980    4.25700316552621
H        -0.28599527929269   -1.09990885848396    3.31703131294282
H         2.98736820321695   -3.22447560178810    0.79488314064908
H         0.87896812620454   -4.03146499433777    1.91097160944485
H         1.89450468310937   -4.89915824086205    3.08323943947190
H         1.93397455548929   -5.29300524165180    1.36862808413532
H         6.92127836651591   -2.12407292385078    3.31222045798780
