37
 energy: -56.176682676895 gnorm: 0.122501527918 xtb: 6.4.1 (79825abcba525fcdf90b791dcacef51065a7a4e7)
C         5.08851954507049    3.22762534378722    1.10612644287246
C         4.29009825837768    2.10474792012309    1.74225457200915
O         4.81589945905049    0.81878143769071    1.40707985104740
C         4.07994379031394   -0.39515892107016    1.17193595615711
C         4.41651097552673   -0.94221494131702   -0.22177433095971
C         4.55198092996951   -1.29897739585954    2.33247474516376
O         5.20868388051203   -2.46036122654884    1.78666232677025
C         4.66030785253931   -3.54049411286073    2.56816570239986
O         4.24752745811354   -2.94695806546018    3.81405545313549
C         3.44069523925069   -1.92134989650689    3.19486848872976
C         2.41147898392300   -2.68915503640594    2.32881806184675
C         1.20312499237228   -2.80851261161483    3.26134166650095
O         0.05259842205482   -3.32924376695059    2.60867664013408
C         3.29420251495537   -3.92710092206674    1.99307991882182
C         2.69375260413073   -5.21193397850852    2.55294314883061
C         5.60598161529160   -0.45366409627625    3.06664924838828
O         5.34776611348925    0.24729901626950    4.04304504693624
H         5.18756148650367    3.00933610688432    0.03818525990066
H         6.03841291908859    3.32700219410826    1.64213481816890
H         4.61659687201060    4.21232694841119    1.17562650020664
H         3.23895282176284    2.20250448887088    1.45895039786423
H         4.28940885200388    2.15111487454265    2.83619866959575
H         3.01432306318578   -0.26021722961116    1.39124952220950
H         3.98147169422881   -0.23146787041332   -0.93136857181846
H         3.99549776726014   -1.92844189424924   -0.44210205176888
H         5.48124904784779   -0.85190985645393   -0.45432439634087
H         5.34283712343415   -4.38017094931751    2.72393928487497
H         3.13883878488721   -1.20845250765873    3.96414021177499
H         2.05271637732991   -2.20375981529905    1.41541542819656
H         1.06072099160712   -1.78651397076844    3.63072882230394
H         1.36082144717502   -3.44091134466677    4.13980301131751
H        -0.68937581340828   -2.74092129873431    2.82835085027895
H         3.28589450103090   -4.02147400120503    0.90000715362491
H         1.64817834175166   -5.35682059842473    2.26503914284855
H         2.73146435431217   -5.25044563124030    3.64807255873996
H         3.25180140629267   -6.07941022825562    2.18795258065412
H         6.58225035111433   -0.39124262063766    2.56036578391629
