37
 energy: -56.173595607195 gnorm: 0.131684858711 xtb: 6.4.1 (79825abcba525fcdf90b791dcacef51065a7a4e7)
C         2.68453061013890    2.42309857768053    1.53472494924502
C         3.66901004834205    1.52761481068627    0.80541135190872
O         3.90286620365499    0.41544143780115    1.67195649521334
C         4.65350751328882   -0.67505506898480    1.10810406000585
C         5.93015695797589   -0.29751678750177    0.34481698445002
C         5.03095887123427   -1.64440284877049    2.25023037600788
O         5.23704331749337   -2.95381337980578    1.68370090379062
C         4.31740510530265   -3.74067785057281    2.46681055212144
O         4.26418134716004   -3.18965893827780    3.79664488798099
C         3.94779083433764   -1.86333168943187    3.32020400089343
C         2.55376935473505   -2.18549540064124    2.72710297951242
C         1.43046876661703   -2.21227519342974    3.76702821125510
O         0.23065205652038   -1.84089076279540    3.10117730336959
C         2.91522596646234   -3.46422363082656    1.91554018760080
C         2.08268905893547   -4.73463083809188    2.04869699798797
C         6.37448254158208   -1.20290689003413    2.85397675743699
O         6.45983456849635   -0.19954545926571    3.55921016788609
H         2.52886070697887    3.43644529117924    1.15151066485522
H         3.08753690285431    2.45636418318224    2.55254491790682
H         1.75283759560372    1.85894519604007    1.43052509500232
H         4.56517855010029    2.14335023619607    0.69371427739868
H         3.20980093719054    1.21314362875245   -0.13750907296818
H         4.00732687443690   -1.24414135159746    0.42954189255639
H         5.88123285181289    0.25278979480131   -0.60001826374763
H         6.53067276673819   -1.16183234421417    0.04352076492148
H         6.64620652813326    0.28587686326217    0.93033091384106
H         4.66261631114934   -4.77275909913866    2.57076405160832
H         4.08836319322819   -1.23162043827083    4.19900960793008
H         2.28640456807583   -1.33127347525984    2.09667100134366
H         1.53574082087156   -1.48517072992686    4.58032021036993
H         1.30985254877125   -3.25934681175137    4.05957465205918
H         0.41871844736950   -1.06614559742176    2.54502371562041
H         2.89861954190392   -3.20690068039089    0.84910102025916
H         1.08517266799136   -4.60935050455023    1.61698844457489
H         2.04622059426541   -5.05668283074142    3.09615406791909
H         2.60739350831774   -5.58899271664168    1.61063005644936
H         7.21271912287931   -1.82923458630963    2.50989379308810
