37
 energy: -56.172255518969 gnorm: 0.131816363363 xtb: 6.4.1 (79825abcba525fcdf90b791dcacef51065a7a4e7)
C         3.24391518172140    2.76680822290998    1.69702873227518
C         3.82448687177727    1.75373793668960    0.72769165281797
O         4.19392344653952    0.65608080509006    1.56505909732364
C         4.53809307354719   -0.62048800134527    0.99717359881790
C         5.67511763195425   -0.51968080730076   -0.02849164542815
C         4.90634603526077   -1.56622737342746    2.16187269233253
O         5.20614740593914   -2.89955367289224    1.70324160518765
C         4.31027589235830   -3.74151503430538    2.45601391080957
O         4.27424820984019   -3.06273601030883    3.72600407288440
C         3.82060150446566   -1.78453781383888    3.22935842900325
C         2.50617015822588   -2.19526104633062    2.52053485088514
C         1.44733384120732   -2.12788652171938    3.62429760640131
O         0.14505141149894   -2.52451226214964    3.21491701846048
C         2.84223282410190   -3.63493827047500    2.03184032510871
C         2.03848975444112   -4.71743100332414    2.74387226953395
C         6.01164200924483   -0.82571204328360    2.93287340130923
O         7.14359094772232   -1.17865193954168    3.25767844355405
H         3.09105194098281    3.69861154800549    1.14355491825166
H         3.93371216110992    3.02230053159381    2.50843613149883
H         2.20392181387081    2.58007996744768    1.98114996246454
H         4.71977463559026    2.22442891042497    0.31340411765433
H         3.13600590188930    1.37746312541940   -0.03603295791739
H         3.66751533022825   -1.03171680971679    0.47292127467147
H         6.12668714564216    0.47725209158117   -0.01606872824822
H         5.29192740880624   -0.84388912126278   -1.00137100978650
H         6.46898096789911   -1.22599148473188    0.22998067226324
H         4.71060933137602   -4.75744170341502    2.50888118188387
H         3.81714199295409   -1.11299420501045    4.08967012552485
H         2.09069537537435   -1.61963392633336    1.68707361381056
H         1.37333431458334   -1.11586314721360    4.03847118493428
H         1.66061468095500   -2.89864219604216    4.37058015811535
H        -0.04567189585362   -1.89742837587267    2.49707562033992
H         2.70256789500976   -3.65218009672963    0.94373196501061
H         2.59270577883813   -5.01224937735205    3.63999342008220
H         2.09620451237047   -5.66071088381829    2.18789940469250
H         0.98711900489076   -4.42778967384663    2.83263642150899
H         5.54018424072563    0.07098570812825    3.36528611988412
