37
 energy: -56.172290828427 gnorm: 0.133967394642 xtb: 6.4.1 (79825abcba525fcdf90b791dcacef51065a7a4e7)
C         3.84967707772371    2.62979879356813    0.66736295699216
C         3.11631294361743    1.53256169622972    1.41652052680824
O         4.16082290065997    0.72804767771097    1.96813175033337
C         4.63038669722015   -0.43099358519419    1.25629765815943
C         5.89603447531156   -0.16430784147849    0.43047046616586
C         4.93944493394839   -1.57945250438038    2.24223999509884
O         5.10976021039573   -2.87756861549182    1.63902391377981
C         4.25714623324509   -3.74881160975399    2.40852758903407
O         4.30645413879168   -3.13930428473366    3.71274517890721
C         3.81185469018148   -1.86392609287187    3.24903760972175
C         2.45898346103507   -2.22988031956973    2.58974167040037
C         1.38406874578453   -2.09053584904635    3.67099434872069
O         0.14854229044074   -2.73134857952263    3.38172391011471
C         2.82792854079754   -3.56962285966551    1.88731700704229
C         1.91301887563388   -4.75495468441365    2.17491340859216
C         6.22088257257022   -1.24480813700786    3.02353056935095
O         6.82811267880969   -0.17863000012149    3.10040101256874
H         3.12199267278413    3.43962802307313    0.55506916555948
H         4.16094499673602    2.21064114646741   -0.29539210539905
H         4.72382840879099    2.99401477606074    1.21543657304093
H         2.55744071048427    0.90848235761490    0.71444421890015
H         2.56065122925176    1.83781424853656    2.30922708610133
H         3.85169878821697   -0.80051910942744    0.57883823620070
H         6.56334880450363    0.49004142032861    1.00008717274356
H         5.60196944980303    0.16821574412693   -0.57022622211682
H         6.42407893715444   -1.12164903745835    0.40662524687272
H         4.54843333123510   -4.80240321117429    2.42481791661433
H         3.67756677745826   -1.20111146094136    4.10563700156809
H         2.25611615640356   -1.44486227010010    1.85406848626882
H         1.32444643333391   -1.04218970798008    3.98503660796185
H         1.82376134874003   -2.60832173806547    4.52835008605843
H        -0.17790704729883   -2.26115773857397    2.59606669773955
H         2.89012643604973   -3.46566473269459    0.79685494576040
H         1.82318674278187   -5.20747375855606    3.16701373711686
H         2.26080747134935   -5.62408813777796    1.60406852248474
H         0.85647195564857   -4.52212384539752    2.01166503270710
H         6.52965291732626   -2.08862486851184    3.66067595397390
