37
 energy: -56.182264935578 gnorm: 0.120371551140 xtb: 6.4.1 (79825abcba525fcdf90b791dcacef51065a7a4e7)
C         3.05493854154026    2.80157845261593    1.48146317932126
C         3.87148600532962    1.73939594678366    0.76871648241470
O         4.34712543397807    0.81563968114893    1.75002191920499
C         4.62052680627180   -0.47845844494937    1.18333283651162
C         5.75502417206667   -0.50619354775942    0.15031645437950
C         4.95335938935543   -1.51990815147329    2.27473679590825
O         5.13242863263855   -2.82116645251237    1.68089870350979
C         4.34241660910405   -3.77983975460001    2.41232022166666
O         4.38554611293459   -3.24426371326908    3.74881270593962
C         3.90161969691536   -1.95645489512978    3.30880516266152
C         2.54174406954238   -2.33965550322455    2.67417928180975
C         1.39673827556637   -2.49347573003488    3.67880214489197
O         0.13459721871586   -2.39563377452890    3.03206346688195
C         2.88366374392334   -3.67825840899203    1.95608159328588
C         1.98539827140242   -4.88310617559436    2.21346070088347
C         6.24049516341397   -1.01174551887197    2.94521191891268
O         6.28150583998597   -0.02760830080538    3.68085145254797
H         2.91459409654169    3.66293844086105    0.82091773616427
H         3.60929804729084    3.02857981360958    2.39832417549969
H         2.10033453686549    2.33682462785405    1.74587498397899
H         4.68180152080681    2.36536888348910    0.38626255814902
H         3.24022853143519    1.22348073285180    0.03782006269165
H         3.72573444185679   -0.79482619344903    0.63459477819123
H         5.58338928097144   -0.01630760089417   -0.81326947349465
H         5.97614768344088   -1.56251943001268   -0.03331389811381
H         6.60929862307634    0.01363113757747    0.59292148743434
H         4.78752711684492   -4.77655556044198    2.47234601477384
H         3.88109696111930   -1.26703397573478    4.15461647215158
H         2.30287587281820   -1.56580624438170    1.93748198350791
H         1.51105956334349   -1.67437107534921    4.39797196918028
H         1.36693560622927   -3.44517198935549    4.21720416978776
H         0.00925042087239   -1.48666562393974    2.71117261375140
H         2.80987148468668   -3.47377616198184    0.88066300548081
H         0.97473737037668   -4.66704638756645    1.85431014922682
H         2.02983292887500   -5.01662026280078    3.30084900189405
H         2.48362761608112   -5.75769247354812    1.78448754160473
H         7.14522707006721   -1.59563635828663    2.71315189231941
