37
 energy: -56.179928787053 gnorm: 0.114086532516 xtb: 6.4.1 (79825abcba525fcdf90b791dcacef51065a7a4e7)
C         4.37998500248182    3.24907157796315    1.86589648242261
C         4.01623587055928    1.99058564648565    1.09980967353884
O         4.56427854738213    0.88941528759751    1.82754031000140
C         4.36880403463250   -0.36386707903304    1.14809374352891
C         5.20517676604048   -0.42476286613820   -0.13710993594005
C         4.71961810186256   -1.50085061394855    2.13336281403982
O         4.94864378295516   -2.78010894040303    1.50964190230990
C         4.37338426042370   -3.65849158941386    2.49740263798416
O         4.30150068679295   -2.92774995659926    3.73666185001959
C         3.59092124535359   -1.82867596359937    3.12563314180969
C         2.37132151616344   -2.47644021964225    2.42432567069542
C         1.08017499699473   -2.43618071212042    3.24608337266905
O        -0.00983972279079   -3.07819258276149    2.59759849638698
C         2.91419119942153   -3.89887962036156    2.09815145104069
C         2.42896924111955   -5.08107528702780    2.92987014451036
C         5.98702611629582   -1.13505930347453    2.92352603082732
O         6.14663637366808   -0.22086888678505    3.72984715126300
H         4.13839462605991    3.15492886089468    2.92925395245343
H         3.79841186263886    4.07103033483293    1.43504308906253
H         5.46396601933181    3.39220307056457    1.82494465486553
H         4.39189289696911    1.97083941717191    0.07354643986404
H         2.94970422935737    1.79090639696285    0.95317229286044
H         3.27981464586832   -0.43100488876134    1.04108965203968
H         4.58161943103452   -0.25083759478779   -1.01964651358310
H         5.75513859884838   -1.36865757662274   -0.20813665921097
H         5.99029697119468    0.33562079880659   -0.17322992346714
H         4.88418526685507   -4.62109428792590    2.58485088403717
H         3.34111029648930   -1.13679695024166    3.93186941741719
H         2.10523266796433   -1.97068763655256    1.49049776101458
H         0.85148507163880   -1.38743494260349    3.46753364091191
H         1.35619371796682   -2.94292061457341    4.17534060758846
H        -0.14610618299396   -2.72951614879399    1.70051318964033
H         2.85199695647160   -4.18167741069968    1.03987895985819
H         2.97365292994697   -5.06131353746199    3.87857217572917
H         2.68272984211805   -5.99725829232352    2.38358449438560
H         1.34844879140706   -5.13384095093148    3.09370838553645
H         6.79969204104188   -1.81981026037505    2.63368077250054
