37
 energy: -56.175070525696 gnorm: 0.120716260384 xtb: 6.4.1 (79825abcba525fcdf90b791dcacef51065a7a4e7)
C         3.14170280957704    2.22977890539383    2.49408158169086
C         4.33572817070329    1.63028267032255    1.77443099699063
O         3.77653638393210    0.58048023635097    0.98213169358212
C         4.39995645624910   -0.66732382666183    0.62870982305703
C         5.47757668112441   -0.35109333566741   -0.41709563884110
C         4.89786455943290   -1.50083584110042    1.83033474074539
O         5.02546471181580   -2.85158715581035    1.34333216391142
C         4.40365954483415   -3.62473004453524    2.38916163268777
O         4.45684909620817   -2.80307044644709    3.57109240731766
C         3.86915740255608   -1.63029019903249    2.96656959015817
C         2.52548300538572   -2.16054546842659    2.40780067902142
C         1.42237593228670   -1.99768268173161    3.45689381626649
O         0.20735250608091   -2.48365232633203    2.90156008128915
C         2.88908837186130   -3.65446057158167    2.16195562852631
C         2.22905611714005   -4.69544419807221    3.05944849854722
C         6.21271553195585   -1.18798022137914    2.56366451402271
O         6.26430031587173   -0.47529465806411    3.56406024253244
H         3.31272303778381    3.24102595439716    2.87629795454537
H         2.86147721662694    1.54032554476562    3.29757759343922
H         2.37501981331617    2.34861814145854    1.72255521165376
H         4.99139691996037    1.19608560782670    2.53357244306036
H         4.86662031719908    2.36597626585834    1.16142812607621
H         3.55020154763936   -1.22963208549532    0.22425801368814
H         5.17825799455833    0.20151281009609   -1.31318677725716
H         6.01961366243636   -1.26948624994649   -0.66446257681407
H         6.17717769349455    0.26648675526936    0.15304028411846
H         4.96194596096504   -4.53892073459014    2.60765758319186
H         3.84969471569651   -0.85131341581705    3.73072624863530
H         2.14889666901948   -1.66733824448790    1.50582900983432
H         1.41920585165692   -0.93699570492101    3.73282875128932
H         1.46633564307980   -2.68389505901017    4.30758223984354
H        -0.13605002259646   -1.86479133851532    2.23523310868558
H         2.86382908090215   -3.93551746013447    1.10169510290033
H         2.28213246922281   -4.31929961049602    4.08551114009688
H         2.76049424613675   -5.65128038768456    2.98093449502180
H         1.17532967665691   -4.83790308501388    2.80153827286452
H         7.04973407584640   -1.89127127738029    2.42912195280109
