37
 energy: -56.186260056872 gnorm: 0.119828728999 xtb: 6.4.1 (79825abcba525fcdf90b791dcacef51065a7a4e7)
C         2.75640756847219    2.27124742060750    1.73777608523696
C         3.99434064328209    1.39857799386757    1.83242829766859
O         3.56248138918446    0.29894952555704    1.02816862794602
C         4.49837585438418   -0.76307342654444    0.76974382210011
C         5.67983461807342   -0.22004618861996   -0.04527319745971
C         4.96607943562483   -1.60041320150406    1.98080643266335
O         5.15772641499728   -2.94063707078632    1.48577731389246
C         4.30737657809645   -3.71040400642304    2.35899829827659
O         4.49815910174836   -3.09255542818733    3.64615762796483
C         4.03443988143215   -1.80372678039553    3.18776035746556
C         2.59155123441755   -2.08837724442724    2.70206427870494
C         1.55461370738129   -2.03041395243638    3.82694947805842
O         0.21870035218286   -2.05770232662579    3.34173321668498
C         2.83527246351909   -3.46401407971431    2.01456574493428
C         2.09296641601580   -4.67961102628173    2.55870610403583
C         6.34601020201120   -1.22201296610764    2.54391266035534
O         6.53042516804941   -0.16325150568678    3.14089557819890
H         3.03006673204733    3.32997254079340    1.78435560560670
H         2.04524308040299    2.08262823965962    2.54903808751339
H         2.23121788133230    2.01230208345628    0.81349169935676
H         4.31429575018313    1.13536496628699    2.84389849802680
H         4.88561029884548    1.83863478229778    1.37324153184883
H         3.92520918738568   -1.43441721715112    0.11964172546177
H         5.33824018753148    0.31351051249119   -0.93778373038072
H         6.27571538601164   -1.05817625919408   -0.42064519058414
H         6.33194023766974    0.39798546460963    0.57818236904879
H         4.67179353403609   -4.73505001429161    2.24733066678422
H         4.16920844299795   -0.96513553389207    3.87312243165026
H         2.38642793923789   -1.34633816934074    1.92365181356060
H         1.72275389295976   -1.12409215693013    4.41983789647196
H         1.72829765545032   -2.72971545002904    4.64993305593299
H         0.03717249499600   -1.33343551630944    2.71932573271392
H         2.55254656116401   -3.35414491836134    0.96015680302276
H         2.59703091948604   -4.90618812030846    3.50299853306420
H         2.32532015576914   -5.47284242720526    1.83828300670768
H         1.02571580455151   -4.55375094868524    2.76434413824919
H         7.07399077856561   -2.01978567369727    2.32729538096620
