37
 energy: -56.172012410434 gnorm: 0.143877974592 xtb: 6.4.1 (79825abcba525fcdf90b791dcacef51065a7a4e7)
C         2.65570513733968    2.26807850039745    1.79890730500169
C         3.20644041116776    1.21276574724273    0.85763427486213
O         4.01163796023594    0.33451003861293    1.64683806658385
C         4.71917631059008   -0.70353294067458    0.94510388069311
C         6.00054246879102   -0.10511704618570    0.34930580757046
C         5.15178301937660   -1.67390962359353    2.06661078596083
O         5.15962142378330   -3.02791332342675    1.57204538334947
C         4.36645844136654   -3.75228943947225    2.53346235018612
O         4.42217328909744   -2.98414026911726    3.75073663171143
C         3.99522160408901   -1.78107121947885    3.07502961257451
C         2.63930241631316   -2.09680364996150    2.39631731304945
C         1.51914158779445   -1.81323387322494    3.40070458031705
O         0.31653948563100   -1.72959816211235    2.64731409668878
C         2.91875576576710   -3.59109776784797    2.05953567406693
C         1.95687142113982   -4.57688590392106    2.71358702823078
C         6.50257083662841   -1.38279821896437    2.74122969369762
O         6.54159332823990   -0.61031064114346    3.69679941314874
H         1.75744405289259    2.64965671239487    1.30344493299960
H         3.35446169258580    3.08415765521345    2.01158605269375
H         2.44873870078976    1.86931219182042    2.79656899392432
H         3.84644490320053    1.70154218632189    0.11856987935462
H         2.46266340036690    0.66616442218152    0.26866329788707
H         4.21490716513865   -1.31161131153481    0.18496667627204
H         5.69075048546001    0.62477159423757   -0.40517153893610
H         6.62871803740398   -0.94232706939214    0.02850232539966
H         6.53765579263436    0.47203707314681    1.10713435877456
H         4.80540321059992   -4.75353579347020    2.53203442170151
H         4.13264675677067   -1.05193876661960    3.87540402616995
H         2.52600254975104   -1.41579997733619    1.54659933105022
H         1.72564894203038   -0.92494879609988    4.00857901202207
H         1.42437439423246   -2.59581341387835    4.15904428568245
H        -0.31643007656336   -1.39718834630671    3.30591799939234
H         2.87707430689310   -3.58818307857680    0.96316094932410
H         0.88917011858869   -4.38532955091260    2.57066579887889
H         2.19914888940310   -4.69516141949266    3.77637876676193
H         2.18356237072924   -5.58159832964337    2.34437735752460
H         7.41915644937492   -1.84675846526375    2.34382343102072
