37
 energy: -56.176831885901 gnorm: 0.122808198001 xtb: 6.4.1 (79825abcba525fcdf90b791dcacef51065a7a4e7)
C         3.18623014035557    2.75443547895318    1.60418236888905
C         3.29271058929699    1.34609690826829    1.04899442504030
O         4.43160282926367    0.73298494530608    1.65688997308017
C         4.76073376734647   -0.54263277211134    1.07805764213331
C         5.90059143835543   -0.49447006647293    0.05171413508907
C         5.06704545000781   -1.58501749021898    2.17631283797914
O         5.32288334513773   -2.93748473641913    1.74810527770431
C         4.31416303965467   -3.73918637949643    2.39456384588273
O         4.29888923472277   -3.09528266357118    3.68300037564277
C         3.86956897665634   -1.84229928456433    3.10684099270082
C         2.54514510421031   -2.17747412882759    2.37717432077137
C         1.42135695314574   -2.01887396547662    3.40475015013745
O         0.16007867801906   -2.39904861922695    2.87043907969307
C         2.88712611598631   -3.60376356724324    1.85450960676209
C         2.03982381161326   -4.73623788040227    2.42403894621676
C         6.22058242407435   -1.06235080007342    3.04846893483359
O         6.24137416470879   -0.33807551915220    4.04162870242834
H         2.23668512109021    3.25014640768074    1.37925393285671
H         4.08360391119041    3.33493848024699    1.36498633608292
H         3.19046512178514    2.66608677117038    2.69475794727274
H         3.53246190141673    1.23948386118388   -0.01207923241751
H         2.37052679967010    0.82803004180309    1.33192170324674
H         3.98131082198273   -1.03814309957590    0.48744385375519
H         5.73482163852980    0.31888617984803   -0.66166974072884
H         6.18793871907638   -1.41712716053238   -0.46265485893395
H         6.80448323207643   -0.10660372292258    0.52966919458092
H         4.63132982988165   -4.78401936198403    2.44839769084217
H         3.75665548978334   -1.07387940817970    3.87358766593293
H         2.31237429982570   -1.50804649475423    1.54272365302790
H         1.47981940109890   -0.95586328749063    3.66512956748992
H         1.70417236973756   -2.52629245540870    4.33159026098050
H        -0.54485024968793   -2.36871934010101    3.53906542840081
H         2.98202087282609   -3.54270607803629    0.76315707289127
H         1.00122332751626   -4.70966181554465    2.08095129034893
H         2.08151448323829   -4.65856863658297    3.51694476588900
H         2.47987824000208   -5.68265501342895    2.09571237177750
H         7.16907164007687   -1.49317818007991    2.69059181090078
