37
 energy: -56.181594585392 gnorm: 0.113677768795 xtb: 6.4.1 (79825abcba525fcdf90b791dcacef51065a7a4e7)
C         3.27195034856377    2.26126647565018    2.29947490810746
C         3.93258284666407    1.63453328843055    1.08548995119384
O         3.45432778914782    0.29562156621870    0.94020989384718
C         4.39995902314003   -0.76713665983963    0.72364327121882
C         5.61023772847913   -0.43442220093246   -0.15925122275235
C         4.91848666425413   -1.54147329710112    1.95575084256798
O         5.16336478256150   -2.93133531895856    1.66198106597676
C         4.48741865208552   -3.68736575325178    2.68651299725500
O         4.50880778648539   -2.82535281325406    3.84037181623160
C         3.92430916854892   -1.72109402386643    3.11565341847295
C         2.58251068866046   -2.31516022535702    2.62015728272002
C         1.46236155031189   -2.20502327214250    3.65799236845569
O         0.16833991787810   -2.16894967601081    3.07058221708906
C         3.03251469903365   -3.74857069299112    2.21118074440707
C         2.17302512040652   -4.86624961497256    2.79157236339923
C         6.13185853682987   -0.94182133710655    2.68556624197193
O         6.31431141377414    0.25740214708909    2.88543444969858
H         2.25249619952739    1.86638299774405    2.24714760977219
H         3.22707342983532    3.33358871793665    2.08132534692111
H         3.77908129510065    2.06217056140854    3.24834662710649
H         5.00779649447827    1.80029587916753    1.19114366118727
H         3.75132506110160    2.22370495703947    0.18056651805935
H         3.90005985884758   -1.54087863010070    0.12927011476036
H         5.26137978861499    0.11215648841899   -1.04100767351734
H         6.12921893410387   -1.33204078866864   -0.51050528464312
H         6.33002014723322    0.16916294794449    0.40065943888197
H         4.99064832842999   -4.64808715596901    2.82414692774901
H         3.80214320533591   -0.77649338924647    3.64849875315024
H         2.27577024620504   -1.76033528098249    1.72757501103650
H         1.62395496922339   -1.31456178672565    4.27619371799790
H         1.47461086326504   -2.97244367070857    4.43735528808367
H         0.02043119277474   -1.34717433184311    2.57287332054172
H         3.03060085100913   -3.82353397548980    1.11657568617887
H         1.12089495043049   -4.66894549635708    2.56529911114769
H         2.04715715174866   -4.87995403795850    3.88069274120539
H         2.35784993889141   -5.83494763015678    2.31763611040791
H         6.90802984711682   -1.65910685706750    2.99601694584564
