37
 energy: -56.170296852472 gnorm: 0.147530543327 xtb: 6.4.1 (79825abcba525fcdf90b791dcacef51065a7a4e7)
C         3.40015414057009    2.85231595057544    1.46673703629321
C         3.27830363605243    1.50770609624131    0.77379687935396
O         3.91593918949079    0.58023919091779    1.65456066499668
C         4.49673702825036   -0.56231233217914    1.00047773275889
C         5.72533326065478   -0.26903363653666    0.12897613261123
C         4.89194402756410   -1.50127631100659    2.16181974189452
O         5.22622280084931   -2.84690130341876    1.76744241588683
C         4.36903667709519   -3.61572664032266    2.63478918100764
O         4.38424156586287   -2.96029749795667    3.91740191314549
C         3.87854005419233   -1.76200167019943    3.28923320034486
C         2.52750134499608   -2.15185283743686    2.63995308865796
C         1.37073980958480   -2.04998096012025    3.63769590932856
O         0.15311394133213   -2.59800410813271    3.14994409387422
C         2.94908922737201   -3.53637630606520    2.06568018433529
C         2.07001071378721   -4.71778668791431    2.46099447567608
C         6.18002436467422   -1.02950397164392    2.85663207578050
O         7.09972220171896   -1.76051215243567    3.21878706397259
H         3.19128024560342    3.73633276367785    0.85612763653674
H         4.41792660469013    2.99369154830882    1.84572293638724
H         2.72255197931331    2.93419598257317    2.32191508317272
H         3.97689570719708    1.58496566013577   -0.06329595720408
H         2.24952946637304    1.17734074629232    0.59674743416245
H         3.81987739437757   -1.18441310311970    0.40322827763435
H         6.67043019937709   -0.07292963873902    0.64499895595185
H         5.52385505728670    0.61592532416372   -0.48314657376704
H         5.87463820768087   -1.21053661645363   -0.40691740640406
H         4.96626077292194   -4.51476049271652    2.80865787544077
H         3.81192279503283   -0.97067613412590    4.03788868486278
H         2.25601911748328   -1.51122340627560    1.79466329059125
H         1.25750111975252   -0.96969729771678    3.78388481838819
H         1.53998667775559   -2.57587030209826    4.58177565220997
H        -0.05603526766379   -2.19959152306684    2.28830039062329
H         3.00878308337208   -3.38869748223405    0.98013378708509
H         2.53645597378721   -5.25607349747014    3.29152594228112
H         2.08620632966082   -5.40439002800318    1.60628557445873
H         1.03166285737356   -4.44117131795738    2.66707525710675
H         6.09613850027004    0.02357513639449    3.16857374598430
