37
 energy: -56.175132704159 gnorm: 0.126832312559 xtb: 6.4.1 (79825abcba525fcdf90b791dcacef51065a7a4e7)
C         2.18096310023685    1.73777639766171    1.47381716669537
C         3.57212592902153    1.48290882697334    0.92363740372426
O         4.11367950999535    0.41862151566914    1.70883231196575
C         4.85684027050424   -0.61279850620335    1.03469625215302
C         6.15042458190279    0.02590922796540    0.51156320041135
C         5.13000210930154   -1.63171408289717    2.16330194681447
O         5.15583702554740   -2.95627020637637    1.59508894379184
C         4.27051574177555   -3.74942581910513    2.41072443143458
O         4.42831790418254   -3.11193389488598    3.69276050393436
C         4.01482419318311   -1.81622469972788    3.20654709258505
C         2.62848435844951   -2.13449725915692    2.59366978048017
C         1.44393478195868   -1.85755928558659    3.52324684628648
O         0.48914356022316   -1.31342919742071    2.62150401136710
C         2.81106981718657   -3.55691264784496    1.98718157772098
C         1.83041514515484   -4.59678389439162    2.51799897383953
C         6.50558411203526   -1.47696168964128    2.83286154294827
O         6.84651816075804   -0.57721889950778    3.59810670921695
H         1.64449630375039    2.56665971198694    1.00146804099253
H         2.24969448618586    2.01705690893057    2.53058419565349
H         1.53382388099575    0.85666111266989    1.42881488040990
H         4.32826477668168    2.26727850092172    1.01162942264320
H         3.48731491946853    1.16745910737700   -0.12142844610304
H         4.22009594680199   -1.02085877592012    0.24103467069766
H         5.83024859956899    0.57494538135284   -0.37949864229975
H         7.01718735997046   -0.59408250460577    0.26101866147067
H         6.43596516500902    0.72576014252010    1.30186503151020
H         4.64576455367316   -4.77444184777800    2.47154611425558
H         3.94578192378870   -1.09968623316251    4.02686701286179
H         2.51293695185231   -1.32394509804947    1.86684277305342
H         1.76436181058763   -1.12966299244474    4.27736918046462
H         1.13351924388214   -2.77268772024264    4.03576299765642
H        -0.40192849205137   -1.60307950135755    2.88034595378881
H         2.76536551313394   -3.58019433133283    0.89121057145937
H         0.75230288915362   -4.43286076928004    2.60693464204849
H         2.19560028108924   -4.73160027196904    3.54302488187486
H         1.96475953415306   -5.52907915648503    1.96128652402715
H         7.16534173827066   -2.34333486330209    2.66721908007283
