37
 energy: -56.179597444412 gnorm: 0.127420480408 xtb: 6.4.1 (79825abcba525fcdf90b791dcacef51065a7a4e7)
C         2.84406121771325    2.64700229677546    1.56788463881076
C         3.66730152370510    1.67132281567376    0.74732738218996
O         4.27274895937558    0.70705909055503    1.61112577981904
C         4.56317464085362   -0.56501996201881    1.00446080047078
C         5.84068383354771   -0.49079573138251    0.15744418017152
C         4.93244017573816   -1.49778710518344    2.17925677439168
O         5.14552772822549   -2.86414739908327    1.77227322011782
C         4.29323488266105   -3.62850327860157    2.64834847100516
O         4.28596644152341   -2.94431261027512    3.91592263619853
C         3.89162626925279   -1.70213111269826    3.29324794223453
C         2.52280817736360   -2.10942476562262    2.69382899594445
C         1.37880473174577   -2.16622805061045    3.70970071313835
O         0.08168657277479   -2.35951513253566    3.16109471838554
C         2.87518740254450   -3.49805544091277    2.08393994250934
C         2.09402523019045   -4.73820151746073    2.50418543303698
C         6.24472072627055   -0.99958634868746    2.80711026339905
O         7.21763996691881   -1.74593840279552    2.89520147498374
H         2.17828030342197    3.15805273147363    0.86537407208879
H         3.54550056594815    3.33973837858332    2.04493570710512
H         2.41381054835424    2.12269914244952    2.42647015213394
H         4.28659447235783    2.16807106755412   -0.00396600297353
H         2.97057236828230    1.22741009451062    0.02873567567158
H         3.67960523833724   -0.91648441440758    0.45890322258788
H         6.62948590186118   -0.03433082929897    0.76355939177455
H         5.67513233698915    0.17118327970557   -0.69860285516188
H         6.22637913253735   -1.43937237571767   -0.22640890015092
H         4.67004902917128   -4.65398979673771    2.68781119779390
H         3.82471901760237   -0.84817939458299    3.96956803143347
H         2.32691007042668   -1.39662547957166    1.88626190680583
H         1.35096797043014   -1.16017753930322    4.14362981912375
H         1.51431898813466   -2.91197565483546    4.49836226925791
H        -0.04268319860667   -1.65575846696857    2.50218306568409
H         2.93753204760017   -3.53048077129161    0.98902208777392
H         1.98914205622905   -4.81974510769150    3.59021330863080
H         2.48625721071363   -5.66648432991234    2.07214511318087
H         1.09801933273200   -4.59655743757534    2.07399846134847
H         6.29201474757416    0.01995895920501    3.22136945041699
