37
 energy: -56.171213859514 gnorm: 0.138835485036 xtb: 6.4.1 (79825abcba525fcdf90b791dcacef51065a7a4e7)
C         3.71085000025955    2.68585766189852    0.64284342107807
C         3.34458406469995    1.65147814437465    1.69112656275716
O         4.43063568892039    0.79257550286856    2.04509963105975
C         4.55696448172839   -0.37497173612310    1.21356544760244
C         5.74931172711174   -0.27070002060675    0.25314282255443
C         4.89505996375095   -1.48051894302598    2.23826737534548
O         5.10929613659848   -2.77659805270499    1.64474886594600
C         4.24132272855880   -3.70930231448668    2.31916400708699
O         4.18068753923192   -3.18391450804627    3.65901661199040
C         3.79182160583169   -1.85687787980338    3.24188361395218
C         2.48263588090706   -2.18404369091563    2.48171949027548
C         1.34258582649549   -2.23571837267613    3.50229849577338
O         0.15013993361751   -2.70228935176112    2.88486162544885
C         2.75575057814841   -3.62383613031919    1.95556640304581
C         2.05276135988520   -4.80553391623230    2.61448933602878
C         6.14395670706890   -1.31385196087778    3.11972260477233
O         6.97475393266793   -0.40794625161491    3.14172532684582
H         2.77913820463608    3.20294909898091    0.39286853155459
H         4.00810420354911    2.18587415262500   -0.28512995664039
H         4.49700648093552    3.36282539661036    0.99048000541833
H         2.39642599829607    1.16315066266752    1.45184244477570
H         3.14982943840511    2.20306604569306    2.61669962220915
H         3.66532255808456   -0.67499308231564    0.65070034868755
H         6.66573374214871   -0.06393830974697    0.81471637252612
H         5.69225396844089    0.57549804221068   -0.43905172499122
H         5.77967422088164   -1.20525868871238   -0.31393735726839
H         4.81895656055347   -4.63572894845442    2.37609961871553
H         3.89613543788662   -1.17520559980368    4.08779173622344
H         2.31123411658072   -1.47119066898078    1.66864782950569
H         1.24179812289904   -1.28786769173223    4.04324943808540
H         1.55371221104954   -2.93108797357941    4.31984203775613
H        -0.16211226304993   -2.22696915343863    2.09652468815093
H         2.77194989044341   -3.51819634181972    0.86361347298647
H         2.24519458349351   -4.73568159899352    3.68929001526975
H         2.47451837432586   -5.75341923373299    2.25973844024166
H         0.97911837090320   -4.71187415803898    2.42562374803528
H         6.16242378118556   -2.11657344237481    3.87378974184323
