37
 energy: -56.182379660023 gnorm: 0.125081028169 xtb: 6.4.1 (79825abcba525fcdf90b791dcacef51065a7a4e7)
C         2.84209736769353    2.04665647272947    2.27566998755000
C         3.98328308121904    1.50769719931525    1.43293199185750
O         3.52440673008141    0.24238239536120    0.95238050652504
C         4.46610109231578   -0.81813111083102    0.70928095369042
C         5.63166762864052   -0.41734854784654   -0.20494226647431
C         4.92287628093078   -1.53342510205604    2.00012102489087
O         5.21471959927747   -2.89651128773768    1.63296175937857
C         4.43156315522712   -3.71859956043114    2.52121156492432
O         4.35118610953979   -2.92875687416589    3.72312755056440
C         3.80282960349429   -1.79093637804956    3.02247606015198
C         2.54416598163156   -2.36419335289185    2.32534154542810
C         1.32403760547832   -2.24689304532942    3.24267096983800
O         0.90048439594638   -0.93595658858079    3.59323088282534
C         2.98398113905444   -3.82886845280902    2.03256099700157
C         2.25170780393130   -4.95191452663544    2.75873329584794
C         6.16159824987396   -1.01636689506957    2.75025629854298
O         6.07560342227991    0.09370083661466    3.27153149136403
H         3.18065125803661    2.72085763921446    3.06863399576148
H         2.22287774202287    1.32621257924777    2.82065238176423
H         2.20768870503368    2.71397765528649    1.68458064806051
H         4.83141044639412    1.37649151939878    2.10982886320431
H         4.23755014686938    2.23796167619897    0.65773775264748
H         3.90644061486928   -1.56148668155474    0.12957595356637
H         5.39354612576997    0.23237642158724   -1.05294000433641
H         6.06814109535666   -1.33314378566973   -0.61634234896777
H         6.45243080813385    0.08754764013368    0.31209674908999
H         5.08626409868072   -4.56982005220558    2.72605093038240
H         3.64989412592077   -0.90965617708557    3.64783592291315
H         2.27335358817555   -1.83659069944702    1.40505919600099
H         1.43111100751778   -2.77765001874110    4.19558193852678
H         0.51612191319833   -2.71959873080214    2.67670962661753
H         1.31835362889300   -0.23267899986332    3.06816727859539
H         2.94577139058062   -3.89263171321036    0.93791144318628
H         2.47028048060094   -4.86540570248092    3.82730645692095
H         2.76220646271703   -5.89215016154123    2.51881284492672
H         1.18316485598362   -4.88222590003248    2.53398656646045
H         7.06983633761446   -1.60161172163577    2.96452738561853
