37
 energy: -56.175357558835 gnorm: 0.133702030439 xtb: 6.4.1 (79825abcba525fcdf90b791dcacef51065a7a4e7)
C         3.81734821618257    2.67848845968499    0.62744521380619
C         3.33121940929902    1.54981063811499    1.51781279046094
O         4.40117584456506    0.74082574793956    2.01102215386311
C         4.74517780278239   -0.44685554703762    1.27505314312098
C         5.88256789537503   -0.12432578293739    0.29663889156532
C         4.92215623240749   -1.57640949516133    2.31396781168497
O         5.09933769237242   -2.82873272939373    1.62239306239259
C         4.22505546900591   -3.74416200731019    2.31215438843694
O         4.21224145563087   -3.20658673514438    3.64847867611817
C         3.76018894518524   -1.88722516716429    3.27274414507358
C         2.39264620604829   -2.18520134344916    2.60950117630028
C         1.25737578972082   -2.13962813371740    3.63568343865470
O         0.08952081698540   -2.80013972184756    3.16591416767041
C         2.76170188903873   -3.52852046778152    1.91399949632570
C         2.00997651101529   -4.77479201555195    2.36842122330426
C         6.18846679966575   -1.28382956948479    3.13575780229825
O         6.83941932627800   -0.24737650913272    3.02000303807150
H         2.84850328932208    3.18407429227710    0.56677937482198
H         3.99598194028957    2.34817338101923   -0.40136968754913
H         4.58631572684801    3.28628411998787    1.11370843735042
H         2.60443705288478    0.86650485124941    1.07104109890428
H         2.96532526266742    1.95318815216521    2.46769284588109
H         3.91828260762488   -0.78968264881537    0.64214781395898
H         6.72166258513179    0.37347392719476    0.79268335064068
H         5.46971350492190    0.49339989275355   -0.50735506280821
H         6.23342686784096   -1.07516940649342   -0.11408740658883
H         4.67016340036404   -4.74259887010577    2.29905581585212
H         3.79254423365327   -1.26952523301283    4.17192095114420
H         2.21610478003672   -1.45669031716098    1.81154859857094
H         1.11857974856942   -1.09233176619665    3.92742470920358
H         1.56108469669476   -2.62794313157157    4.56616719857386
H        -0.23698347383880   -2.45438686860318    2.31811952103194
H         2.77941635766071   -3.38306604183311    0.82665751460287
H         2.07664290204632   -4.90475995503663    3.45275065488723
H         2.42007685436520   -5.72681410574583    2.01109028882568
H         0.92538381327286   -4.68671885937071    2.25416963863584
H         6.39556186647688   -2.02094804670356    3.92764670135453
