37
 energy: -56.175976907496 gnorm: 0.120570348759 xtb: 6.4.1 (79825abcba525fcdf90b791dcacef51065a7a4e7)
C         2.74038103059749    2.24084159935534    2.08367726522173
C         3.94217410086557    1.57267296604142    1.44162322276734
O         3.57122392610871    0.22286263629037    1.15365287395302
C         4.57356464985859   -0.74386651912771    0.79126827070275
C         5.81935358019681   -0.31621677541186    0.00380272224224
C         4.99298780176796   -1.63492572822522    1.98150155504650
O         5.18568459655605   -3.02656137771404    1.65870013859149
C         4.31510842812602   -3.78603869996038    2.52093108886601
O         4.38173358479922   -3.02793471148955    3.74394106268395
C         4.02087970991831   -1.75360515971018    3.16764983363939
C         2.61511495375197   -2.16012161913533    2.66028005386394
C         1.58201579208824   -2.11604733212101    3.78931922807722
O         0.29671170032515   -1.81094923888281    3.26419780904799
C         2.89599198476689   -3.54138883136127    1.99873647094765
C         1.87071067997207   -4.60307301341309    2.38136922269026
C         6.25366113141345   -1.13031666657240    2.70299793134888
O         6.63634173204917    0.03794351006108    2.69314164799739
H         2.81697458074763    3.33244315527257    2.06137593454958
H         2.49623462332837    1.97368908216075    3.11736011539860
H         1.83435695677432    1.91413184716217    1.56448592881907
H         4.83984041007482    1.54692023067791    2.06472542683040
H         4.09290901921662    2.19171754501833    0.55115880239903
H         4.10122203392172   -1.40157842038759    0.05223993766197
H         5.59401600677093    0.17726453060956   -0.94679908493545
H         6.51888521087091   -1.15399203035805   -0.08121613350378
H         6.40032892704059    0.34973054254011    0.64791728800708
H         4.75992391911814   -4.77522402669581    2.65811842416445
H         4.19010687496964   -1.04087440412036    3.97665917703616
H         2.17530591259474   -1.46735531871562    1.93552742280943
H         1.96065459587691   -1.32042342332256    4.44110311758093
H         1.61240359710068   -3.07036204979099    4.32303325353743
H         0.15759463575376   -2.36036066895180    2.47445141117972
H         3.00314728282568   -3.51619981298866    0.90710163917586
H         2.08270058896273   -5.13446117492400    3.31399630382157
H         1.96675254406796   -5.40632414174704    1.64124941817595
H         0.89166272984557   -4.11759019317984    2.32730300540688
H         6.86204860728866   -1.86638791171182    3.25198241731124
