37
 energy: -56.167899129286 gnorm: 0.124991110883 xtb: 6.4.1 (79825abcba525fcdf90b791dcacef51065a7a4e7)
C         2.88177173130672    2.45199649509614    1.95610505755066
C         3.33935891309524    1.32740161919679    1.04567131414674
O         4.52621739647244    0.70992368784773    1.54827130320804
C         4.78495912725819   -0.59029787927241    0.98876153197183
C         5.91308197225390   -0.58933472540134   -0.05158170239096
C         5.03828761728416   -1.55415127076703    2.16917183825893
O         5.19445949078004   -2.90437645994270    1.68908365724465
C         4.30347962808910   -3.68328527930656    2.51225240836456
O         4.32352774810992   -2.97474305357922    3.76623803767173
C         3.90262165914035   -1.71724608736714    3.19371529727526
C         2.58488126348013   -2.08869741628303    2.46953414175386
C         1.38472792295957   -1.90449881730804    3.40209444644663
O         0.24008568538912   -2.33678669850291    2.67837812927567
C         2.87014349063858   -3.54253208793715    1.99055484016247
C         2.04713133260990   -4.64307995490563    2.65103065907571
C         6.37841408168049   -1.10574196489950    2.77536847852841
O         6.70297229770541   -0.38670681248428    3.71824900556993
H         2.05965560805451    2.90895395338753    1.39639724878812
H         3.67628511374766    3.18369837506091    2.13732041009026
H         2.47735074252912    2.11608455089873    2.91568066659278
H         3.46158420633593    1.77555118303714    0.05625366618599
H         2.47628611661765    0.65383555479244    1.06234964365015
H         3.91818889355648   -1.10634384741827    0.55950499965059
H         5.64553335719193    0.12018069882823   -0.84085362089788
H         6.18484612183478   -1.59796749181127   -0.37906334028883
H         6.79060037732411   -0.27709913588602    0.52145590304414
H         4.65356147044010   -4.71565591761214    2.42965469141853
H         3.65374234807544   -0.97980694260616    3.95880455794359
H         2.40958017818295   -1.47853658573053    1.57757181051282
H         1.31513619551270   -0.84567696508658    3.67643050299762
H         1.58859608079366   -2.63327754795921    4.19191088633090
H        -0.61752070947879   -2.00620991340922    2.99482103443073
H         2.88727058513488   -3.61073556878853    0.89564008260344
H         0.97536193783553   -4.49953120727813    2.48426581710456
H         2.38143196577655   -4.57252524013410    3.69289383261655
H         2.15944422512984   -5.65899829313814    2.26058556643617
H         7.17777568316322   -1.76776650707367    2.40649915765731
