37
 energy: -56.174470032944 gnorm: 0.131877066088 xtb: 6.4.1 (79825abcba525fcdf90b791dcacef51065a7a4e7)
C         4.69544940279586    3.00173789781958    1.80351299642328
C         3.84478957300936    1.76864996272165    1.56089954841111
O         4.78349223664957    0.82075245071296    1.04821399488149
C         4.35944074251482   -0.53262332823650    0.80504924966068
C         5.25026960331342   -0.91898255448685   -0.38328017885874
C         4.62703074021216   -1.35355755781061    2.08607235639405
O         5.32861071048808   -2.60243741519158    1.92461871712175
C         4.42346112390163   -3.53075946016998    2.55475626927393
O         4.23138536396674   -2.82040287842596    3.79306739251987
C         3.54896316836275   -1.74567685304866    3.11078675193638
C         2.30459981280213   -2.47822124962014    2.55061447180988
C         1.24379018545770   -2.75342340105459    3.61968544371629
O         0.01138176160834   -3.03328026144208    2.96876791578253
C         3.02412047933510   -3.72813235249192    1.96372150971763
C         2.49752085726536   -5.08170296077544    2.42775001746124
C         5.65505628594723   -0.44118967536006    2.77544374575070
O         5.47776524072230    0.32076445500191    3.72379348336706
H         5.13917727298191    3.12930531360353    0.81114713388036
H         5.46107086357334    2.76307397922597    2.54939601548715
H         4.07568350215922    3.89450841891654    1.93012085731131
H         3.09037826475789    2.00571917028829    0.80632276397247
H         3.44408966889257    1.29833247620107    2.46483822353265
H         3.31203793359361   -0.51367424220402    0.48187178098329
H         4.91674761947780   -0.34650192568044   -1.25447110056159
H         5.11233448395258   -1.99814127183568   -0.50506049493573
H         6.31471528396809   -0.77511148126161   -0.17795539984895
H         5.06363615141871   -4.41490111495724    2.61507478785815
H         3.20746790571140   -1.00392867186294    3.83487913651656
H         1.81854096430569   -1.92078490689369    1.74337527238832
H         1.18940398097082   -1.86711270896334    4.26210472188522
H         1.60320248802322   -3.60207056649250    4.20884713056628
H        -0.66246489346684   -3.02241613198027    3.66928095200495
H         3.06037758825579   -3.72077708951086    0.86717476800999
H         1.41571102401509   -5.10848085930077    2.26626677157029
H         2.60806480238795   -5.11681435987876    3.51805318395992
H         2.89268892887956   -5.97531145077874    1.93535006729751
H         6.69316192625756   -0.54533923819018    2.42215956529047
