37
 energy: -56.169782814473 gnorm: 0.143488526185 xtb: 6.4.1 (79825abcba525fcdf90b791dcacef51065a7a4e7)
C         3.66054602780943    2.70383543220958    2.02476475072611
C         3.36321219925169    1.34999277236636    1.40695253303379
O         4.61297836528032    0.78459333837244    1.00579561964968
C         4.57418212024129   -0.63836423566156    0.79541176259104
C         5.52067804713338   -0.84638486806600   -0.39448286291279
C         4.85242891828490   -1.46753778394930    2.06883531875281
O         5.24457157000586   -2.80044891776804    1.68470687569839
C         4.41710538511921   -3.60548704458250    2.54805168066153
O         4.42327446164495   -2.92826688543698    3.81936942593598
C         3.87316398194370   -1.73223456311768    3.22512359936339
C         2.55744000692482   -2.19672143418392    2.55283141832236
C         1.36359363408384   -2.11088034904357    3.50746652149423
O         0.09915918495519   -2.30783236968194    2.88838700646582
C         2.95858204484322   -3.62509982653995    2.08033660824612
C         2.31360302900276   -4.86107750427773    2.69770543727584
C         6.06711800114571   -0.84873210404459    2.78023853600494
O         5.97157232753456    0.16544161894759    3.46849438207054
H         4.10487042814789    3.43216547824090    1.33914893525860
H         4.36497677155841    2.53034468067370    2.84522587235845
H         2.83170656510494    3.31198282304242    2.39941181498787
H         2.72810028327056    1.33538050615705    0.51748994826147
H         2.90578635706124    0.66757539659590    2.13078414599281
H         3.54654147078970   -0.84456704059007    0.47402340821631
H         5.40230979350720    0.03377961795592   -1.03420470716806
H         5.30138250733579   -1.77748512522887   -0.92683787846132
H         6.50538943033892   -0.95549278919426    0.06848657896337
H         4.96315300819166   -4.54169673552627    2.69127271294900
H         3.74193284336456   -0.98167568691692    4.00650629389806
H         2.27515168431838   -1.51921570886356    1.74047503286910
H         1.22473621816834   -1.16693448623379    4.04681044096082
H         1.55562771915621   -2.90792207932966    4.23157845920319
H        -0.22794037180072   -3.20839143744605    3.05241476357109
H         2.85719997346383   -3.80025454774527    1.00199253593984
H         1.36707564785644   -5.16072731406563    2.23792035348916
H         2.08229368990440   -4.95475601236695    3.76538240449391
H         2.95952458891593   -5.65857858716373    2.31832567096019
H         7.04899112466153   -1.33162785865940    2.65352223141405
