37
 energy: -56.179640931083 gnorm: 0.118062305843 xtb: 6.4.1 (79825abcba525fcdf90b791dcacef51065a7a4e7)
C         5.41549886942438    3.05746147261951    0.82798660004954
C         4.31051346329661    2.13683030066676    1.31217124246429
O         4.93830331679043    0.85653479165463    1.40830720041384
C         4.03069403190485   -0.25476863741240    1.29956581771834
C         4.07587576933604   -0.83508108668905   -0.12035397500218
C         4.48664736292787   -1.22181651906211    2.41468113083466
O         5.17852590763080   -2.39964942295816    1.95425076306550
C         4.58669179087054   -3.47308513456475    2.71294635991803
O         4.16604008060860   -2.91584380509319    3.97288612324187
C         3.44093019857649   -1.82181110308553    3.36993425555171
C         2.35778953583042   -2.60949244878187    2.59197629850380
C         1.05491275536540   -2.92563777832712    3.33125302823801
O         0.04029259731380   -3.32746797561081    2.42025226676315
C         3.22921101891441   -3.79390291389395    2.07989486577350
C         2.83794202020089   -5.24748819931059    2.32234342164431
C         5.52408578325514   -0.42491644798587    3.22286185501549
O         5.33987971675492    0.17654984227751    4.27911927508934
H         5.79615879411644    2.81957106782371   -0.17024385792673
H         6.33011230039339    2.93260734918660    1.41736922743438
H         5.06592705955986    4.09286806147932    0.88194275825193
H         3.49185386936584    2.11411462836438    0.58828947929539
H         3.87872059189433    2.47820086602693    2.25868332250492
H         3.05275300770695    0.11213843494730    1.63253098677953
H         3.72748716397308   -0.11010714196264   -0.86263607901755
H         3.29318487396048   -1.59563039721277   -0.03433213970254
H         5.05856086983571   -1.25337101905262   -0.35543956717402
H         5.31241306480722   -4.28681465995444    2.63331155184007
H         3.08386653335931   -1.25392367022813    4.23082239899387
H         2.02144790134977   -2.07875602448822    1.69541806759465
H         0.76086641399569   -2.04705161845723    3.91676997476025
H         1.31188061762493   -3.70024597600852    4.05956636811907
H         0.43410934041592   -4.06849874654498    1.92965301977957
H         3.30843065800446   -3.64172497900490    0.99622079078272
H         1.93088049966089   -5.39954317929820    1.72970097401939
H         2.71154592237439   -5.52632115604706    3.37519191777319
H         3.72346860581538   -5.79230782489785    1.98151227651490
H         6.51213734986711   -0.59612240742297    2.76705193880028
