37
 energy: -56.170530662246 gnorm: 0.125946711222 xtb: 6.4.1 (79825abcba525fcdf90b791dcacef51065a7a4e7)
C         3.44081878926970    2.57460817468095    0.99738517140997
C         2.81067578888261    1.27070013829441    1.45096305271310
O         3.77733202031452    0.46680506437449    2.13055649062424
C         4.73078018059983   -0.31407930672026    1.38777065628077
C         5.99094177203282    0.40597223982942    0.88927827263573
C         5.01164736497670   -1.56350253548863    2.25183802019562
O         5.19211743947725   -2.79204316257823    1.51964891646086
C         4.26379953713872   -3.76007726629903    2.04812474438764
O         4.27658954390021   -3.45503877586046    3.45585408922790
C         3.96877496142256   -2.05619018577731    3.26953270973108
C         2.58754037431364   -2.12834663453560    2.57251142724565
C         1.38279364430381   -2.18407422950308    3.51561568298889
O         0.18588202132235   -2.05575904417943    2.75945316699876
C         2.79164344488544   -3.44450839497129    1.76598112756850
C         2.04797115448701   -4.69074511299120    2.23355839209564
C         6.30831949388447   -1.49056459142034    3.07512759347013
O         7.06058301102658   -0.53197566868405    3.23816190339531
H         4.24148887313321    2.73294826926171    1.72664075142608
H         2.77521619366803    3.43538186739132    1.12196444018755
H         3.91443675964227    2.58529322265280    0.01110409236498
H         2.36175077829984    0.55628550517682    0.75612321271598
H         2.07140424820879    1.47672212339273    2.23192181909973
H         4.23728336904074   -0.82795319050588    0.55455412869348
H         5.77937671328765    0.96494529856208   -0.02763715606697
H         6.76899522962787   -0.31497669668761    0.61852841829662
H         6.45377998350390    0.96770020726493    1.70545483824409
H         4.59704256366609   -4.77096922900859    1.79869472038797
H         3.98592510314875   -1.58062070007280    4.25170303467176
H         2.34840885334009   -1.26422363615851    1.94423515413920
H         1.38594367750701   -1.32840543973891    4.20047186636083
H         1.36269011002322   -3.13522990529476    4.05542064481217
H         0.34167805467299   -2.64900155718684    2.00533330262658
H         2.44992009794064   -3.27205541205719    0.73774550264885
H         2.54999029047618   -4.96438556669179    3.16640569042140
H         2.25747558158591   -5.46980735637122    1.49100625935758
H         0.95971142842179   -4.58062665812299    2.26032258727283
H         6.69086003206073   -2.42830293518952    3.50828990439351
