37
 energy: -56.165328138268 gnorm: 0.142760763932 xtb: 6.4.1 (79825abcba525fcdf90b791dcacef51065a7a4e7)
C         3.54318238814142    2.34476388157394    0.65120265618307
C         3.48025941256525    1.75056247105879    2.04617743979896
O         4.50652473386880    0.77651361557924    2.24749093215733
C         4.51287845018453   -0.35024464325999    1.35253280078274
C         5.50080389333280   -0.30478432042168    0.17911351888641
C         4.87179880823071   -1.51825131605626    2.29778080247287
O         5.08995296475890   -2.74953524011078    1.58061203682162
C         4.43814366376266   -3.70463073997982    2.44147676246834
O         4.28659228713150   -3.20155393320979    3.78269258253404
C         3.79622903126883   -1.92428230042130    3.31969808539778
C         2.56721866887883   -2.34863802778014    2.47808656423316
C         1.27841392352210   -2.20293337267720    3.29154729524832
O         0.10465822536207   -2.21784874206846    2.48972495856263
C         2.97201017925461   -3.77526492308636    2.00341773849092
C         2.10939117712351   -4.89954642747846    2.56614544927648
C         6.06518868446013   -1.08261603489820    3.16411027544522
O         7.01384615490662   -0.38355217441715    2.81377897656000
H         3.10428778453475    3.34011262541055    0.53032969226788
H         2.78720794686748    1.76828628135310    0.10746155846973
H         4.57096468817796    2.30317522221787    0.27822484557656
H         2.54908643907662    1.30117541247393    2.40070882244637
H         3.82125767548867    2.49057785919351    2.77758804630948
H         3.49274087070236   -0.49485918703981    0.97801819001684
H         6.39372875968673    0.22367411705351    0.52748318500673
H         5.10257541242507    0.09670255244072   -0.75825641818141
H         5.89013500747243   -1.29100286719689   -0.08864750888611
H         4.97829287009046   -4.65292304253695    2.50589224370464
H         3.60331947032276   -1.24741930998799    4.15382121501724
H         2.41947053926524   -1.76275052837803    1.56510800931570
H         1.26092026612706   -1.26839739428406    3.86386142866271
H         1.02323582985385   -2.98332674230767    4.01429275069650
H         0.27067118585849   -1.47058068897838    1.89061227565873
H         2.88668875801134   -3.72308795046385    0.91081479252798
H         2.08528088473586   -4.71315926442260    3.64400671588084
H         2.56289381785876   -5.85974170353831    2.29306279283521
H         1.09945314106268   -4.74433290846561    2.17488395855756
H         6.19606298469071   -1.64057802016741    4.10478576837055
