37
 energy: -56.177410196938 gnorm: 0.128649557475 xtb: 6.4.1 (79825abcba525fcdf90b791dcacef51065a7a4e7)
C         2.90866468150151    2.35455507550979    1.82952849467237
C         4.02545552944564    1.33211911452010    1.72758648851296
O         3.41818319665549    0.15932409183266    1.18142630188978
C         4.38440485797844   -0.85006572182505    0.83773679601872
C         5.48360823965436   -0.23069004707093   -0.03582020033537
C         4.99853655064713   -1.64034995531767    2.01453340202853
O         5.32491555442259   -2.97531557523027    1.57941740945147
C         4.41211139711396   -3.72808753783590    2.40299121156966
O         4.51214985801075   -3.13665444585554    3.71261450823732
C         4.06559324134197   -1.85497640263622    3.21851792045863
C         2.64267614130942   -2.14647991098629    2.68075695377796
C         1.57804651303834   -2.19556795908841    3.77990208401848
O         0.31134862477130   -1.84446585108731    3.23856324069542
C         2.95865247382652   -3.49903029279496    1.97705431694233
C         1.99932817812785   -4.64569941689418    2.27643659727169
C         6.24430154841593   -1.09547508723884    2.73263171892446
O         6.52964394994679    0.08302296911521    2.93535157474178
H         3.36964639240197    3.34429676232938    1.90611259882888
H         2.35638634140890    2.19387255072635    2.76154132810041
H         2.25238499262660    2.26807362331142    0.95832447218414
H         4.52599057324984    1.08794402576899    2.66810099196970
H         4.79947110890464    1.75051905443115    1.07589220896980
H         3.75108487337452   -1.57740908279677    0.31645695555200
H         4.94507648634570    0.22545502439645   -0.87239643010084
H         6.06359780829814   -0.99133366462594   -0.56824242039045
H         6.08747995463111    0.50528606739874    0.50230600654247
H         4.71051259247746   -4.77919120166360    2.36684384555224
H         4.02119896433020   -1.11985943318318    4.02396885028012
H         2.52165707640125   -1.33223074632930    1.95897013424748
H         1.89990398936022   -1.49049927729909    4.55481686359444
H         1.44756670459116   -3.21617295607419    4.15115824105596
H         0.33815439207620   -0.92768831202437    2.91652869670671
H         2.97953525600342   -3.30707237399762    0.89700827522335
H         2.15350317018898   -5.06898161168595    3.27351665790865
H         2.27916190999762   -5.42925022408679    1.56232528228114
H         0.98938010494146   -4.25986269275144    2.10825056357397
H         6.52867771116772   -1.89975181401821    3.42947402353500
