37
 energy: -56.172756860888 gnorm: 0.126094110066 xtb: 6.4.1 (79825abcba525fcdf90b791dcacef51065a7a4e7)
C         4.49136284980738    3.13936491347429    1.78968484096586
C         3.89998546385717    1.80118097267669    1.38653993706264
O         4.84470131659547    0.77883448692207    1.06275224313647
C         4.26698367279632   -0.53388131672584    0.94615772592763
C         4.65463580385955   -1.16355488090287   -0.39854050881229
C         4.76161975946029   -1.30451321030962    2.19035191488142
O         5.26014482954991   -2.61350079467209    1.84975411217082
C         4.58984235259980   -3.53586866621454    2.73184427162961
O         4.25677810255133   -2.74871764323498    3.89131635451505
C         3.61747401701760   -1.69177914222724    3.14270814746549
C         2.45189777829050   -2.42779340442226    2.43661360513470
C         1.21616767344058   -2.45593209787567    3.34002127961364
O         0.16628043844145   -3.15957432575029    2.68927674217934
C         3.21300015578080   -3.74194904231469    2.09288503381029
C         2.44176063713155   -5.02323455552569    2.39000476188223
C         5.90137374543482   -0.57785886230349    2.92344051317777
O         5.90131864871856   -0.04314948434844    4.03044517101684
H         5.09401510520532    3.70667150387571    1.07349257234479
H         5.05066766730421    2.92206201677362    2.70589209744577
H         3.69814354861431    3.82033306630962    2.11258426770159
H         3.25959025319912    2.11856843130520    0.55956743061406
H         3.22774795654466    1.46237172300744    2.18163056262148
H         3.17412813890959   -0.45378900639203    0.91288067789545
H         4.44167634697826   -0.49467179278750   -1.23829540489411
H         4.07315025545212   -2.09107833980127   -0.40239564576962
H         5.72041270230847   -1.40580755486184   -0.43507807829822
H         5.33192474567103   -4.31032069746740    2.94328378455558
H         3.52164557111152   -0.88515577374967    3.87160787293375
H         2.01773484961082   -1.92921680892771    1.56394667586426
H         0.82122040093247   -1.46409388033434    3.58797422109947
H         1.40242096670527   -2.88809313419435    4.32746104348546
H        -0.43315307988618   -3.51975284730158    3.36444838855601
H         3.34776942129464   -3.77968921519188    1.00467714955710
H         1.45011435601489   -4.90323932506441    1.94352382802416
H         2.34654032948374   -5.17300088455077    3.47200149782084
H         2.88478297689990   -5.94232096586837    1.99483005182417
H         6.84430926315662   -0.57918990667263    2.35406278707739
