37
 energy: -56.182696028223 gnorm: 0.114884445909 xtb: 6.4.1 (79825abcba525fcdf90b791dcacef51065a7a4e7)
C         2.74694455137035    2.36756484461467    1.81048866841784
C         3.92359264681894    1.41353565957086    1.71929201380340
O         3.47545782186226    0.18137131826717    1.15055217888964
C         4.44182822698676   -0.80231641135881    0.73938159244890
C         5.55675570586965   -0.42964985474010   -0.24704248608024
C         4.96794956782444   -1.63206027623229    1.93155549890129
O         5.21856317614513   -2.99633417782856    1.53921391788937
C         4.49076259773615   -3.72301326232069    2.54935979032594
O         4.58946655883563   -2.93365318946570    3.75022705029862
C         4.01075353671649   -1.76556629258705    3.12820847964607
C         2.62424523009306   -2.18725151701235    2.58173752066125
C         1.59914884994030   -1.92189605976668    3.68750865124416
O         0.31016192559047   -2.09768999245143    3.11440030464829
C         2.99485693466344   -3.65719808134384    2.22630111704483
C         2.21952672165275   -4.78070958592430    2.90554179090616
C         6.19545234534321   -0.97597423931470    2.58521618359212
O         6.46665290274609    0.22278022391487    2.55673299373679
H         2.38869228473196    2.60025303789474    0.80278365939300
H         3.03539054052614    3.20415319748066    2.45577697431576
H         1.92625976084729    1.91663437265033    2.37645395221349
H         4.32486208140654    1.18642105649552    2.71031478301457
H         4.72942328685078    1.92616358039427    1.18383552781057
H         3.74989228012679   -1.51577464377255    0.27671838592484
H         5.14405600568096   -0.13674631410369   -1.21752227909344
H         6.16372979080466   -1.30600058091754   -0.49610451878436
H         6.17496592098278    0.32003885842297    0.25463935168968
H         4.82666290344610   -4.74894153675923    2.72201833684952
H         4.08152042157245   -0.94759100153225    3.84725471485438
H         2.35334399774796   -1.66092357459948    1.66075166783027
H         1.77331674084324   -0.90831592767958    4.06635935976558
H         1.83147352388966   -2.59492727246893    4.51789705868309
H        -0.15547421857240   -1.26334501574070    2.93563427449043
H         2.72644505268292   -3.87122508169569    1.18422103939017
H         1.18488525116188   -4.74364555591562    2.55163547805634
H         2.33959857253795   -4.79187343586443    3.99534538399376
H         2.60656011474512   -5.72535578072111    2.51184095396434
H         6.74701419815382   -1.64101475029732    3.26845895518789
