37
 energy: -56.175345642563 gnorm: 0.118517761987 xtb: 6.4.1 (79825abcba525fcdf90b791dcacef51065a7a4e7)
C         2.54372922025469    2.45701394960702    1.75067109907395
C         3.83003787592613    1.72976023667589    1.40498145276747
O         3.73210449888434    0.31783919045351    1.60349289717033
C         4.49385918773035   -0.69281163329330    0.91873799451760
C         5.62155122801096   -0.29090673679492   -0.04134492904375
C         4.98154940665313   -1.57971450208341    2.08583641142422
O         5.09156281382750   -2.89472287505977    1.50563608464407
C         4.36737512726532   -3.73750248253097    2.42401812719587
O         4.54086984297434   -3.10699634955613    3.70748046268331
C         4.01385369978215   -1.84150370519361    3.25248024776579
C         2.61040619737449   -2.26910990049055    2.75615151805919
C         1.43032737829914   -1.93797763805924    3.67361064227610
O         0.21212235572669   -1.85743010978559    2.94537127729034
C         2.84523012490347   -3.72373057984280    2.25279546717192
C         2.21216752385896   -4.96892437409572    2.86394769557607
C         6.31887087582742   -1.19952955108567    2.74273435671841
O         7.02891037618202   -0.23441829409501    2.46745731162338
H         2.25800808664029    2.22181787782548    2.78072163564886
H         1.71711979019786    2.14226793014771    1.10481511600381
H         2.78974220971961    3.51417823007252    1.61261382221681
H         4.69935533173051    2.16239080820075    1.90682034836467
H         4.01895478288275    1.84008919635103    0.33213384970391
H         3.76913133653319   -1.32468312852504    0.39208517715377
H         5.21335227006738    0.15507445454449   -0.95371488792533
H         6.16155693260341   -1.21490024459372   -0.27171391656306
H         6.30586278385208    0.42842171741519    0.41711550574982
H         4.84653435013619   -4.71767484728673    2.35446683759936
H         4.01387047733381   -1.05752715451338    4.01175605971904
H         2.43432579672116   -1.67204016044358    1.85552566878705
H         1.75598656083880   -0.98606403876334    4.10836756594763
H         1.36222178417902   -2.74880996525827    4.40463952297492
H         0.47929866584978   -1.35670787060421    2.15619454787112
H         2.67546693471672   -3.82110708030022    1.17322071643446
H         1.12833709723864   -4.97067836950850    2.71423159303279
H         2.56325248636983   -5.15279801231147    3.88627033353311
H         2.55004297296398   -5.75495371583956    2.18192886987183
H         6.53913583793519   -1.89842491475890    3.56513854748041
