37
 energy: -56.177857741998 gnorm: 0.137163667994 xtb: 6.4.1 (79825abcba525fcdf90b791dcacef51065a7a4e7)
C         3.23033423534653    2.66855780449676    1.27397702107497
C         4.02355271075367    1.47081920437783    1.76307413279157
O         3.47642971105570    0.35761259448441    1.05318236022274
C         4.38578097157979   -0.70126676825599    0.70328302533062
C         5.46593342065417   -0.20610751472761   -0.26783197207629
C         4.86235277938976   -1.49885057459516    1.93750219796042
O         5.10267835783854   -2.89232405412079    1.65739886162296
C         4.41882014453851   -3.67114486291756    2.65936044899615
O         4.54900314075728   -2.80372806536845    3.80196908945323
C         3.89904316500077   -1.71016292060249    3.11792943040035
C         2.55396243384599   -2.31749987744377    2.64808471154926
C         1.64488759899392   -2.14933013827687    3.86844036373854
O         0.35832854540481   -2.73065311186173    3.70208705416540
C         2.96214344940129   -3.74921255353787    2.19199459377978
C         2.10830146495082   -4.90365486416075    2.70482970726978
C         6.24631444575614   -0.94668674954121    2.31730451401818
O         6.31101688778066   -0.17610882430126    3.27302240131054
H         3.07773786563629    2.63722249043294    0.19060713012831
H         3.52076050413013    3.69185580296735    1.53472969195979
H         2.19918640950876    2.49292331137349    1.59501473149355
H         3.92799490037133    1.33981214118743    2.84401363597874
H         5.07867972645100    1.70272271992395    1.58477151791546
H         3.71011761432647   -1.32516798788338    0.10655724282847
H         4.92414630042522    0.38502957891439   -1.01279388751370
H         6.05937475336562   -1.08410062397080   -0.54241449865856
H         6.17854296044233    0.47966181125983    0.19886903593838
H         5.09886696354529   -4.50860221137379    2.83647730347003
H         3.79616367637613   -0.81769376835300    3.73763401030923
H         2.10159484716859   -1.76461443982907    1.81844330441945
H         1.46614338533487   -1.09565515992897    4.11139423384937
H         2.06837614659757   -2.70010592603763    4.71330377965119
H        -0.04701480003129   -2.23295400019982    2.97208826964661
H         2.98547632812352   -3.78818371537000    1.09576456799685
H         1.07922290464112   -4.84741212652786    2.33748723840226
H         1.95349135454475   -4.77448149658376    3.78258749443907
H         2.57195993698218   -5.87207732148493    2.49428179919860
H         7.16423141020309   -1.27459104098782    1.80424760858957
