37
 energy: -56.176236294411 gnorm: 0.137191374976 xtb: 6.4.1 (79825abcba525fcdf90b791dcacef51065a7a4e7)
C         3.43551854429054    2.87033331997608    1.77602367284769
C         3.75607917508055    1.74334814930617    0.81158882437170
O         4.28344975571975    0.77296237291196    1.71864479103664
C         4.58809075154586   -0.46492066668862    1.05125131973989
C         5.79798178788454   -0.47824883919390    0.10734339063817
C         4.81521162383252   -1.48054277209098    2.19295401328047
O         5.09551003721943   -2.79612076591230    1.67462039693549
C         4.31405030249182   -3.70064875079045    2.48041234362766
O         4.27113701747996   -3.00807426564020    3.74271698326918
C         3.69625636409797   -1.79972635160336    3.19897954610162
C         2.42079767371367   -2.31778907782424    2.48928220101710
C         1.28188958728866   -2.20043579632140    3.50568883401566
O        -0.01554796638428   -2.38915558675444    2.95624857914278
C         2.86663885971237   -3.71979598289332    1.97934769087861
C         2.32903213425575   -5.04797526730008    2.50059782633814
C         6.18067949699936   -1.07566640758635    2.77265813218228
O         6.36306613056183   -0.46044627216691    3.82128227614900
H         3.09216626656977    3.77138022322197    1.25816117981077
H         4.27875078170589    3.18978274343505    2.39762613479142
H         2.61169245910920    2.70292560067987    2.47635485021924
H         4.52319729836174    1.99146168025438    0.07355508536791
H         2.86421357090293    1.41292082816535    0.26913367141172
H         3.65222727870679   -0.74470353454440    0.55352011760912
H         5.66675200197142   -0.03905423428120   -0.88655368588248
H         6.08143649153007   -1.51883580139185   -0.08046567058456
H         6.54341296521806    0.15816847246147    0.59232491276346
H         4.83433082251607   -4.63696171289663    2.69903308071423
H         3.59396726779939   -0.95700462036252    3.88489209218987
H         2.28772093105726   -1.65011819952365    1.63188516090306
H         1.34263827010987   -1.20020047709528    3.94958735022609
H         1.50312142944778   -2.88857126341026    4.32667404445139
H        -0.17813866372927   -3.28227886095497    2.60868429484747
H         2.82333510859142   -3.83113913552066    0.88870070083152
H         1.24462993484299   -5.05884890145333    2.35547711369008
H         2.54559832583915   -5.05779439530239    3.57540777181432
H         2.74780091624631   -5.89403692755730    1.94745770287230
H         7.01405446513241   -1.40844512257335    2.13385884113857
