37
 energy: -56.183406642368 gnorm: 0.109489779047 xtb: 6.4.1 (79825abcba525fcdf90b791dcacef51065a7a4e7)
C         2.95765148797967    2.02836424057949    2.37724279418928
C         3.98157347165752    1.46750102228504    1.40770399394238
O         3.56291927534702    0.17385696675126    0.96755342670102
C         4.54247177138126   -0.83305033927113    0.65580163748938
C         5.71582961632730   -0.43054774305018   -0.24763577726842
C         4.96799874950954   -1.54482961056462    1.95920267671410
O         5.30044401107838   -2.92608920087428    1.71510331923644
C         4.46342106640899   -3.64698027428353    2.64131037633018
O         4.35997239416803   -2.74020787156302    3.75575021677122
C         3.86243501163626   -1.59642561590088    3.02742228612007
C         2.54242903011454   -2.21312704034220    2.50195318366705
C         1.45548174890673   -1.93564182501010    3.54383295481648
O         0.16431582702077   -2.38130226637350    3.14997853555610
C         3.00443847072105   -3.66365268568856    2.17491556978782
C         2.23759720361092   -4.76292479276632    2.90178436144440
C         6.17735985946423   -0.85233804718842    2.60911452854566
O         6.30907336128589    0.34157988929298    2.87100156947995
H         3.11796996755364    1.91453516130974    3.45395017957694
H         2.01075210170232    1.50970647554027    2.19324867550658
H         2.68082223020654    3.06801145530093    2.17805004729446
H         5.02401718496637    1.40696397382544    1.73076854602567
H         3.93829924684532    2.07362547226869    0.49687768989933
H         4.02030774337957   -1.58529633203665    0.05303638642025
H         5.42252910689122    0.53061011858215   -0.68133491334205
H         5.85844126639427   -1.13261598525673   -1.07540515111881
H         6.69823053718847   -0.21051980599880    0.17942140767183
H         4.89257617637312   -4.60546433086157    2.94512449885598
H         3.88050860694045   -0.76006022952276    3.72833975981965
H         2.17531531363992   -1.74778741510290    1.58145871126026
H         1.44204578395342   -0.84986032533863    3.69251047988021
H         1.66868528911279   -2.37393129028418    4.52308637766077
H         0.07698541102806   -2.29076219177201    2.18608966973773
H         2.85893131984721   -3.85570665266324    1.10452950587210
H         1.15224016984477   -4.62643581248453    2.87993808572960
H         2.57803296781720   -4.61274289038485    3.93317305748853
H         2.50309923072552   -5.71389999191540    2.43029048624574
H         6.99610575614414   -1.53877022013803    2.87704377667846
