37
 energy: -56.171342951579 gnorm: 0.126940197119 xtb: 6.4.1 (79825abcba525fcdf90b791dcacef51065a7a4e7)
C         3.68758876992734    2.46521006175116    0.61476375714788
C         3.01104817699468    1.37389443877513    1.42365948854403
O         3.98553100617855    0.61841666864603    2.14626267488766
C         4.63738323539217   -0.37269371811340    1.33179138533151
C         5.95005262956517   -0.10362894124360    0.58380784954642
C         4.95359939169655   -1.54449531808778    2.28753485413689
O         5.11778773993182   -2.77437657583946    1.55376603552633
C         4.29190312680053   -3.70921479159000    2.27636064754870
O         4.48308146041914   -3.28667539038102    3.64011475471186
C         3.95168171194249   -1.97017161046750    3.37426714951655
C         2.55582395507150   -2.18180697957360    2.73736388989227
C         1.38342894449572   -2.44327601675316    3.68662135675859
O         0.19793133042291   -2.08868110062210    2.98683437824727
C         2.84078881828889   -3.44034663467293    1.86598343301385
C         1.93969490647248   -4.67026463575734    1.87667800443066
C         6.31227833169644   -1.15047543068651    2.89021564379124
O         6.50577446657837   -0.28515672533107    3.74177661494202
H         4.63094011604950    2.65859262401986    1.13500340617517
H         3.11748380352812    3.40033237266329    0.61694352910274
H         4.01354095903576    2.21046712803600   -0.39817243456114
H         2.41803889588426    0.73328303246875    0.76587429852406
H         2.32834813931302    1.75322297961833    2.19105415979358
H         3.89520004475570   -0.80553453137996    0.65085952273563
H         5.68193967964970    0.47837357239945   -0.30351006959142
H         6.41821902724489   -1.07991675628243    0.42218368250602
H         6.50959210581745    0.58446106776613    1.22361206316014
H         4.61391769107459   -4.74176873585354    2.11727645295466
H         4.00360659211697   -1.38376264781618    4.29325971128199
H         2.33468122953997   -1.38807328783366    2.01645736078317
H         1.46244239044260   -1.81716414743606    4.58269489490290
H         1.29382657339044   -3.50547731706598    3.93195882763258
H        -0.45512330118795   -2.17491940110160    3.70166894412382
H         3.02324391192633   -3.21935555652307    0.80690059740611
H         1.94517556221096   -5.26098609350325    2.79761475781229
H         2.49052206113032   -5.26442442283141    1.13791055420682
H         0.89299394909989   -4.47490898503573    1.62487471878115
H         7.18517210378573   -1.67542529586299    2.47092559142890
