37
 energy: -56.172913735149 gnorm: 0.135181519004 xtb: 6.4.1 (79825abcba525fcdf90b791dcacef51065a7a4e7)
C         3.55454951565833    2.99077786459690    1.57141953561721
C         3.97067253747902    1.77771125842676    0.76006244304822
O         3.99451880639749    0.63256385221213    1.61480663638913
C         4.38998265917488   -0.63221305443848    1.05398359752616
C         5.62609357701617   -0.52261476677923    0.15121323059204
C         4.84632274964980   -1.50608410479185    2.24337870028118
O         5.29020803840816   -2.76064801944608    1.68928678664638
C         4.43731386984576   -3.74194682095984    2.31200273330864
O         4.34367313377283   -3.28321194482929    3.67424637953172
C         3.83108005460164   -1.98752612244829    3.29386557249607
C         2.47909322523420   -2.32065418645591    2.61562389495914
C         1.34818057135487   -2.33347031854933    3.64753397985850
O         0.05213409963874   -2.59997912476630    3.12784113392778
C         2.96449724529075   -3.62041802092145    1.90892162395334
C         2.22768828392165   -4.91046163147812    2.25197134085639
C         6.05026646893484   -0.95056704679390    3.02209877253287
O         6.11770743269116    0.04914639102680    3.73441767118824
H         3.43904117359555    3.83471240982125    0.88411306722403
H         4.15959270840752    3.21697971370937    2.45585925961406
H         2.57698144004727    2.85473025891493    2.04368030374140
H         4.96429131796110    1.93107481457204    0.33119685334846
H         3.32738220670825    1.56262333915949   -0.09945999305543
H         3.66472366566431   -1.12179213568453    0.39355411723751
H         5.29485383009125   -0.05338203075453   -0.78047634827775
H         5.91583836481460   -1.56018762850579   -0.04354454058809
H         6.51027872886400   -0.06772498162418    0.60639852768515
H         4.97481637671034   -4.69270750818192    2.26389813945943
H         3.82316149228909   -1.39914071307847    4.21302773261597
H         2.19678763788072   -1.57018099723049    1.87015948618772
H         1.24361536453055   -1.35287090714785    4.12575774195322
H         1.54024964515085   -3.00492607990751    4.48940532813019
H        -0.66657452735833   -1.98641702611233    3.35566854400602
H         3.00103136505746   -3.65270532541754    0.81283482987208
H         1.14694205351437   -4.76187525409399    2.33573351926570
H         2.57804601421145   -5.25308989928444    3.23282256082810
H         2.46736729055588   -5.74489559450558    1.58606924677305
H         6.98074900957662   -1.53798814428519    2.97251170682355
