37
 energy: -56.175020996924 gnorm: 0.132360072595 xtb: 6.4.1 (79825abcba525fcdf90b791dcacef51065a7a4e7)
C         3.58176957600074    2.73404340705231    0.66413195150379
C         3.15888581266994    1.53230732277472    1.48874638600561
O         4.12714665820828    0.60020225921638    1.97471952233185
C         4.52445246065082   -0.49884763844116    1.13518867987620
C         5.72184945491877   -0.10402525457194    0.26035619883261
C         4.94860449715271   -1.53859980405343    2.19611643438574
O         5.16270530237027   -2.83613588326282    1.60574083228981
C         4.40475190939503   -3.76413510090917    2.40728619036856
O         4.43094609981295   -3.12062202504771    3.69574214862784
C         3.88832091507141   -1.85318233607185    3.26516415543197
C         2.52674814986244   -2.22801536139666    2.62918143266583
C         1.39081517905475   -2.14784248767593    3.65250663937294
O         0.17717603089669   -2.36897385243243    2.94608968834177
C         2.94506748721229   -3.58038104847986    1.98068552683822
C         2.07955927221410   -4.75724158934307    2.41735213195601
C         6.03739346462707   -0.99268085175061    3.13472996076689
O         7.12418823440292   -1.48076625203040    3.43808300735579
H         2.70014061002218    3.33459484571400    0.41912949489541
H         4.03462646561949    2.40005606519211   -0.27546969394547
H         4.36152917224148    3.32256477244371    1.15687538679667
H         2.38607778332096    0.96809103476144    0.96039795371594
H         2.68340385603266    1.89369012402803    2.40645191799521
H         3.67089230473197   -0.85375042075180    0.54583792021962
H         6.70350374836305   -0.20169914507986    0.73444397343217
H         5.61813665579827    0.92026643202241   -0.11181343318265
H         5.79405991699363   -0.64207124212300   -0.68895611699140
H         4.82949551338488   -4.76980940015249    2.34914082952020
H         3.79434404683875   -1.07404520405299    4.02360512022363
H         2.24265880778851   -1.53101017282950    1.83413393068935
H         1.29416382171212   -1.29930759551242    4.33942296441085
H         1.47332145037184   -3.08949855362114    4.20293123977773
H        -0.02973773595276   -1.51593779167819    2.52845105889840
H         2.97652500220873   -3.56729246889946    0.88404406716361
H         2.34661731009943   -5.00395226123608    3.44930185930619
H         2.33542507894111   -5.64150614670053    1.82168222873187
H         1.00597887234104   -4.56661371629962    2.32658999243741
H         5.57646805664764   -0.14414891466475    3.66469352313300
