37
 energy: -56.180531544485 gnorm: 0.105508194836 xtb: 6.4.1 (79825abcba525fcdf90b791dcacef51065a7a4e7)
C         3.03535881096423    2.23898487281402    1.62626951928080
C         4.05923110371371    1.57766559289948    2.53033347532820
O         5.02826565909018    0.90781095701318    1.72114519704419
C         4.72600751186282   -0.37197692593401    1.13688689907299
C         5.57709245688799   -0.50463925417689   -0.13316485979295
C         4.93577317242522   -1.46394019149026    2.20934769906013
O         5.19660905301079   -2.75098223585160    1.61481424685349
C         4.41507780655697   -3.64952751148457    2.42720343088015
O         4.30706670605481   -3.01492038954156    3.71581562157236
C         3.76477967758269   -1.80287179064139    3.14739158308989
C         2.52509857443379   -2.18172604954189    2.29973922809336
C         1.10456595346717   -2.10106974066354    2.86502458625839
O         0.16665996659633   -2.66256114129973    1.95623212582023
C         2.98637791092259   -3.60733862997425    1.87632323222558
C         2.25288188988232   -4.82398953068108    2.42997210958610
C         6.10184138721767   -0.98894323049066    3.09204095659482
O         6.00989442515417   -0.51332941569365    4.22195718878962
H         3.61998221796511    2.81857591836917    0.90498762698167
H         2.29664058125663    2.95001900710653    2.01124225517772
H         2.50921687805138    1.42873059740054    1.11261476747553
H         3.63623723401042    0.90481792714306    3.28071775428228
H         4.59273794559042    2.36115302611751    3.07840461809280
H         3.68117144955718   -0.37360290383113    0.80496773022801
H         5.24294114047890    0.22401187499481   -0.87838632998434
H         5.47284511999111   -1.53659995854180   -0.48335007157891
H         6.61945069889549   -0.22558804539923    0.04437803092988
H         4.92771158420228   -4.61100963776120    2.51624018851091
H         3.52364464349056   -1.02397682771070    3.87285394123981
H         2.54906205489123   -1.44471899153850    1.49049891962143
H         0.90983130619396   -1.02785135180050    2.97220527758966
H         1.05352611865403   -2.61569865731110    3.82889318884455
H        -0.61120676589508   -2.10073681809914    1.80072448256497
H         2.92635639439071   -3.59793390476703    0.78083597206406
H         2.30455928200701   -4.87603602935081    3.52163459888060
H         2.68498178407892   -5.68810961531362    1.91151294394711
H         1.18196790998341   -4.71917653347165    2.23170687546567
H         7.10224790439780   -1.15312322475112    2.66128360691457
