37
 energy: -56.178052126933 gnorm: 0.125363711154 xtb: 6.4.1 (79825abcba525fcdf90b791dcacef51065a7a4e7)
C         2.71702233248751    2.18836183761304    1.96102390201461
C         3.94025189225915    1.33241263298590    1.68890321112949
O         3.52358152738034    0.13999641641283    1.02028659361828
C         4.51679310286989   -0.82003443985277    0.61724052741552
C         5.68501739371973   -0.23021715474197   -0.18422295864941
C         4.94974516709002   -1.55540437886117    1.90500633831577
O         5.25054031713099   -2.95092823744885    1.70496168980277
C         4.44424725410141   -3.62087253305429    2.69451563275428
O         4.36809974818682   -2.71707242744260    3.81356027189507
C         3.85281013733614   -1.65716366511480    2.97850764189957
C         2.49812045355077   -2.21363044710725    2.47450882830211
C         1.54386479426457   -1.99694224074824    3.65196721940614
O         0.14664975748023   -2.15851049435557    3.44573964755555
C         3.01420824515235   -3.64548198775420    2.14604948429001
C         2.22430734570151   -4.73417621648247    2.86409153498453
C         6.28789779038851   -1.08496457190854    2.49873879629205
O         6.70372031559435    0.07158868923378    2.46959268134734
H         2.16170388613095    2.16521815322717    1.01813278246381
H         3.07424107793948    3.13384460450876    2.38284764076324
H         2.09837322018813    1.70997132471128    2.72626524553696
H         4.49642200254435    0.95858170653331    2.55241324899515
H         4.61752261463225    1.89272125650233    1.03604589209129
H         3.94236634362498   -1.58184205107710    0.07729764274515
H         5.41207164807861    0.17061467560213   -1.16543599539077
H         6.44659321952990   -0.97929608373776   -0.42364529782701
H         6.16234344196954    0.54279083344771    0.42448075089140
H         4.82003218943620   -4.61686212520603    2.94343175225709
H         3.68809094032212   -0.76351452162729    3.58297254087260
H         2.17233984796921   -1.69549907366588    1.56674762612910
H         1.80108382189250   -1.04050086227915    4.12129147783004
H         1.93678597847742   -2.68028863832537    4.41034794257057
H        -0.13239236273432   -1.39944226099912    2.90642826698803
H         2.87537080967674   -3.80000708429217    1.06872430175787
H         1.16825076434375   -4.78903581317152    2.58330457745730
H         2.24188792234262   -4.46117291553565    3.92587017329456
H         2.60437561903594   -5.74147379643037    2.66902405161972
H         6.92884311813390   -1.93063864254624    2.79427984486805
