37
 energy: -56.177820358108 gnorm: 0.125416553724 xtb: 6.4.1 (79825abcba525fcdf90b791dcacef51065a7a4e7)
C         3.66625038398538    2.98935509827480    1.93959803029390
C         4.03996036812207    1.87968587786189    0.97421502894459
O         4.62066591243725    0.86429406268784    1.79536017216561
C         4.40730944502505   -0.44164240794639    1.23004294937950
C         5.26265117163789   -0.59288987623761   -0.03506213968452
C         4.85559101964695   -1.46139317407923    2.30042101640193
O         5.21810145240908   -2.74370951545885    1.75066345227844
C         4.33536462200793   -3.68119020948527    2.39878110716556
O         4.24773946309285   -3.17163040264821    3.74324553767648
C         3.75686156714872   -1.89214098068754    3.28696870032176
C         2.45140231735434   -2.27229132920759    2.54527061626952
C         1.33944360632220   -2.49760634014205    3.57325254364288
O         0.07536152400289   -2.88505159842081    3.05092446632147
C         2.96097599809336   -3.50706022685123    1.74520100463551
C         2.15050284784507   -4.79580360166069    1.82920518524259
C         6.14292029141678   -0.91869046399825    2.94287051575206
O         6.30236728428144   -0.29568811416981    3.99063862759509
H         2.59307103988281    3.10001291265779    1.75521035638301
H         4.18619635812668    3.94750490620874    1.83432082159336
H         3.79928340642137    2.74052425629935    2.99674700201414
H         4.79892644089841    2.20412911068530    0.25767373276421
H         3.16814336535223    1.50075742944468    0.43088050059419
H         3.35873760010592   -0.55936922383978    0.93256568540171
H         5.04524231490895    0.13664896825392   -0.82147871190544
H         5.23978493138139   -1.65584940245334   -0.29589584667025
H         6.31724776424542   -0.46379224552095    0.22390029389496
H         4.77967180055271   -4.67972203200763    2.37243452882661
H         3.54858282596986   -1.12983373894219    4.03971476215981
H         2.07942656748591   -1.50045992036300    1.86370343361947
H         1.17593690554503   -1.54266177450067    4.08565221856344
H         1.67919178715524   -3.23505093090624    4.30621728631321
H        -0.09933935210020   -3.83862726352672    3.12219090097580
H         3.15304005020414   -3.24269947513902    0.69781942777390
H         2.06913123687763   -5.24261886575336    2.82461523473904
H         2.57217357040389   -5.49040203960375    1.09303906105117
H         1.15823744453283   -4.68506373861176    1.38165890073351
H         6.92308989387415   -1.34352039054182    2.29158334848943
