37
 energy: -56.179624373255 gnorm: 0.122820048906 xtb: 6.4.1 (79825abcba525fcdf90b791dcacef51065a7a4e7)
C         2.91549213188741    2.36489242015370    1.48141350510055
C         4.36194392525336    2.01983586731110    1.17858937905298
O         4.64988374426864    0.78595417161750    1.83975912079397
C         4.59474159462408   -0.42078273575156    1.05788957645491
C         5.63258319379049   -0.54143072101715   -0.06607885264249
C         4.92191391694630   -1.51780333962709    2.09522331352651
O         5.00555267921366   -2.82228764397858    1.48751642566156
C         4.25125045756326   -3.67993149638875    2.36707656746075
O         4.32344333159340   -3.08844046772603    3.67850347129886
C         3.90090581730618   -1.78785711282772    3.21354342738754
C         2.52725473475688   -2.21938773212423    2.64282612874579
C         1.45078395647722   -2.17786586523704    3.73069214779659
O         0.14561981156419   -2.58578608566997    3.34211575536834
C         2.79724370679249   -3.56094655443156    1.90002276985710
C         2.01293487686418   -4.81706125951112    2.26309084039998
C         6.23198732317346   -1.24953883306623    2.85431890910944
O         6.21422779643998   -0.45064441839298    3.78857028745262
H         2.32859095596094    1.47511212209660    1.23282569209034
H         2.56183349061463    3.18792481890485    0.85131716589637
H         2.88069586704855    2.55490467673876    2.55838290255688
H         4.98737759856699    2.83933559642167    1.54187611298776
H         4.52698312989920    1.91496567589908    0.10126474571833
H         3.60524554547677   -0.55320799158967    0.60488144595433
H         5.32767932372670    0.13572176162944   -0.87009546387785
H         5.77270266335980   -1.55418184403352   -0.45741212916150
H         6.57463915044457   -0.19849975714496    0.37076281666508
H         4.78602662344553   -4.63308490683638    2.39318870176253
H         3.79463086985240   -1.02281676188126    3.98460626960127
H         2.22804130141917   -1.40687061222208    1.97281809270560
H         1.32794621866343   -1.17701695805112    4.16013288291323
H         1.66500228661134   -2.76167175636554    4.63056539061187
H        -0.25427376312498   -2.04704184495668    2.63873419292165
H         2.80043381902069   -3.54689827637853    0.80294672734514
H         2.08622539033233   -5.06368756503339    3.32653352970858
H         2.27514237485497   -5.68386142033451    1.64493353207264
H         0.93774227506419   -4.70965626491391    2.09111217666717
H         7.14510247799312   -1.82218354311448    2.62712118503364
