37
 energy: -56.174663467324 gnorm: 0.136057340647 xtb: 6.4.1 (79825abcba525fcdf90b791dcacef51065a7a4e7)
C         3.42952503896264    2.75190425860043    1.60126502116325
C         4.11503932675246    1.74341659696051    0.69793116004447
O         4.53110564367753    0.66844730061718    1.54282679760974
C         4.55850355810833   -0.65634997130074    0.98181329252614
C         5.69416697409366   -0.76025341519017   -0.04505030023397
C         4.89677332919695   -1.56555758155948    2.18409125323964
O         5.12698925607387   -2.94440253812024    1.83228219753262
C         4.19367372995371   -3.66738860225955    2.65954524064593
O         4.15258001958685   -2.88951649749563    3.87121362217551
C         3.75289729009009   -1.67073563721044    3.20708276765790
C         2.38996605731203   -2.13938345788718    2.63994796842192
C         1.50128965161118   -2.31030923756556    3.87485869969272
O         0.21069707082465   -2.84548907126052    3.61256629591332
C         2.87735734304640   -3.42759405339551    1.91372888572113
C         1.97103965954018   -4.65370959246246    1.91717251236509
C         6.17209327239499   -1.13206249048533    2.92579559430530
O         6.06008724395460   -0.25996042088747    3.78501963259261
H         2.56877464656485    2.31438357027226    2.11666998686873
H         3.26339514919685    3.62059733315349    0.95531505155937
H         4.07278508898793    3.09024135228292    2.41914217547869
H         4.87644671674365    2.15717584270204    0.03175820362750
H         3.30769396781198    1.37414569071609    0.05707506598474
H         3.61500517434147   -0.87605958053114    0.46859430837469
H         6.68155878136296   -0.55059885750856    0.37808909634127
H         5.44084111619499   -0.04865513492151   -0.83744789048484
H         5.69785339036619   -1.78381265740591   -0.43003679769375
H         4.60082542535720   -4.65507652116439    2.89164195115745
H         3.84333537467053   -0.80342221718997    3.86336578643006
H         2.01527716449324   -1.38756134455212    1.93781176064718
H         1.49237046436682   -1.34652787665319    4.39663732138383
H         1.94019863855215   -3.10104095158629    4.49015775685395
H        -0.07138044321111   -2.29019670031433    2.86624966607201
H         3.08917704877507   -3.09357145521014    0.89033028496508
H         1.27667992686317   -4.69376171065821    2.76178294140847
H         2.45563019035012   -5.62807093639221    1.78298706137297
H         1.27450069434392   -4.61780048140957    1.07414485511652
H         7.08608990784338   -1.61408194777981    2.54423636452828
