37
 energy: -56.178019843492 gnorm: 0.120884406468 xtb: 6.4.1 (79825abcba525fcdf90b791dcacef51065a7a4e7)
C         4.07132083787500    2.83151750112534    1.28974991856242
C         3.30909023068008    1.60308725843773    0.82828170724445
O         3.65264957961830    0.53658625713595    1.71544651784029
C         4.46272017055316   -0.45923271572114    1.06528898352510
C         5.69774531337547   -0.03710263304598    0.25813643843827
C         4.85120546517812   -1.40241256869111    2.22548213593536
O         5.05597013481252   -2.61353443831167    1.47100372266721
C         4.41314198685674   -3.64507939705065    2.24614102434299
O         4.48321012188419   -3.11015485542480    3.58175330623186
C         3.82309982413104   -1.86315624687364    3.27273593330057
C         2.48429168394283   -2.28860944929281    2.62048095576928
C         1.42105979874181   -2.42941721878646    3.71303623150063
O         0.14228647396393   -2.39633569685820    3.09296496849781
C         2.91375038880233   -3.61845329309493    1.93381397397024
C         2.14984589320410   -4.90148795544044    2.24212372986267
C         6.15264403345106   -1.22435503146327    3.02488030197728
O         6.36918214035560   -0.64867498989926    4.08934121542507
H         4.15110083806514    2.77706485004624    2.37999206180222
H         3.50585445679098    3.73408967880600    1.03462368026161
H         5.07423938004643    2.74073046062893    0.86185900649344
H         3.43650325039007    1.30208544474147   -0.21473707002702
H         2.24832690753151    1.80574203767210    1.00877070689204
H         3.75686110078904   -0.97753312567533    0.40575664252921
H         5.50412793539723    0.44326375212922   -0.70607567800655
H         6.25075590762656   -0.96450974201000    0.07776077527406
H         6.39014207551191    0.53090310266165    0.88571744306598
H         4.97191948474474   -4.58401443585301    2.20956895607737
H         3.88445062776950   -1.24515126025989    4.17019063105879
H         2.11968007477134   -1.49685185499005    1.95805978415103
H         1.45739854893041   -1.54309368756383    4.35671090992300
H         1.51429873058204   -3.33937109710832    4.31285379795997
H        -0.56732418460375   -2.40506807419982    3.75725580203029
H         2.80441311171321   -3.56374007712917    0.84347677451800
H         2.40272972600721   -5.25530116715573    3.24610200142712
H         2.47210691345835   -5.70501620687055    1.56929095986387
H         1.08122425718486   -4.68073836081774    2.16169336095047
H         6.98753464135069   -1.82251647793563    2.62678406942361
