37
 energy: -56.172465494953 gnorm: 0.125635589243 xtb: 6.4.1 (79825abcba525fcdf90b791dcacef51065a7a4e7)
C         3.60963514981179    2.80154603978932    1.78079836803769
C         3.38070574663584    1.32372874303699    1.52265764734563
O         4.64573379471150    0.72309005380242    1.23725265851796
C         4.61731149408943   -0.64456112955851    0.79082571874128
C         5.64237175583769   -0.71856526785625   -0.34880183677594
C         4.91830307448176   -1.48683632056346    2.05040252379036
O         5.25687853035509   -2.85280777577446    1.73819903262854
C         4.37212799885342   -3.62821228842667    2.57133479030464
O         4.32341744042396   -2.79199131270999    3.74320326915870
C         3.78660618528399   -1.62485991362791    3.08299055389838
C         2.43594653557357   -2.21687841370866    2.60961252147560
C         1.32000926487892   -2.12129698707383    3.65341041792884
O         0.06227651021744   -2.53944806731391    3.13950191670783
C         2.91938060432200   -3.60139588962065    2.08632120969540
C         2.17737103818409   -4.86517874260807    2.50710335862595
C         6.16857626751492   -0.92628178097700    2.74831354584794
O         6.21438073997629   -0.05312906890627    3.61253549883246
H         4.19113528717654    3.37815065321598    1.05461479702523
H         4.14771154589832    2.95777788438732    2.72183161043323
H         2.54221451179660    3.03717275481671    1.82846129554679
H         2.71000285728396    1.10814503552907    0.68695097881601
H         2.94761644646994    0.82201360984309    2.39419631336572
H         3.62624805745771   -0.88109817776373    0.38622873546700
H         5.23992604003001   -0.16822398236241   -1.20501820786571
H         5.80085898054503   -1.73845551394774   -0.71369321114856
H         6.57259429104830   -0.20458103729975   -0.09110444011628
H         4.71514217229050   -4.66163726283246    2.66902260691088
H         3.88385823651669   -0.72108753840218    3.68702410562736
H         2.00095607821746   -1.68883953651557    1.75487177196727
H         1.17679019373243   -1.09661286211358    4.01495948196512
H         1.61100756452290   -2.74031865160633    4.50700448446843
H         0.07216311332753   -3.50405993353671    3.01978536353898
H         2.88773245620838   -3.47378575182018    0.99705658477410
H         1.26951906920289   -4.90440913877930    1.89770023366478
H         2.14389199629517   -4.76626034388723    3.59857395194783
H         2.81677568581154   -5.73893620752185    2.34942896526059
H         7.09855320424559   -1.31217740376301    2.30160613564260
