37
 energy: -56.184149660695 gnorm: 0.123835565425 xtb: 6.4.1 (79825abcba525fcdf90b791dcacef51065a7a4e7)
C         2.74015009035762    2.56305894358913    1.36501481765231
C         3.54487269477137    1.52179410504983    0.60925140888085
O         4.23100276623008    0.70916162839971    1.56390987154281
C         4.81688499540344   -0.50957553951106    1.07197867185302
C         6.13316512435847   -0.20725960338534    0.34328956681550
C         4.97869575936554   -1.55549683885034    2.19733331733870
O         5.10816558891374   -2.80931456809626    1.49793281076444
C         4.34622631674165   -3.75381773972898    2.27608007052822
O         4.44861759672917   -3.23736040084024    3.61686409903399
C         3.96970158490712   -1.91145832415720    3.30243448263490
C         2.55977447465877   -2.19534322056915    2.72765705157034
C         1.52101416954914   -2.16753273954728    3.85200996857707
O         0.25836802358006   -2.30610875960164    3.21375816422529
C         2.85417604275954   -3.54123558277943    2.00216934280873
C         1.89110672830526   -4.69196612634121    2.27253876412544
C         6.30373704100492   -1.32132133442588    2.94158577621999
O         6.33923104800128   -0.45742891963035    3.81554423728254
H         2.35793317765328    3.20684012708508    0.56663277313925
H         3.45922087072868    3.13416352685467    1.96188576566255
H         2.00517439429390    2.14818947834083    2.06134273791357
H         4.20437373931406    2.04051695219953   -0.09125506004586
H         2.83707849639274    0.86917225684774    0.08773807520550
H         4.06228270389856   -0.87603134489564    0.36618779368789
H         5.97798826155259    0.41962568365244   -0.54038431744402
H         6.58059722857916   -1.16292625130857    0.05183493642664
H         6.77556842285709    0.39786654009336    0.98907750283286
H         4.57713487238794   -4.82083661933051    2.21845405967469
H         4.02690477104741   -1.21185890569493    4.13814223463430
H         2.30723194174266   -1.47505174893531    1.94278382993643
H         1.59302510559847   -1.20172613365382    4.36507820623058
H         1.74155696488223   -2.92484962526786    4.60985076669216
H        -0.46480031930402   -2.18187366595290    3.85133093764800
H         2.77126889022152   -3.35342979598827    0.92437587091567
H         0.84761479006471   -4.37530117715964    2.18335203925731
H         1.94737685906081   -5.01629743343252    3.31841477230689
H         2.20345771378072   -5.48580899133612    1.58740958411269
H         7.17858455567367   -1.89638333142483    2.59914515455830
