37
 energy: -56.167251050692 gnorm: 0.135669628799 xtb: 6.4.1 (79825abcba525fcdf90b791dcacef51065a7a4e7)
C         3.81780436387179    2.59542756843666    0.60617985494516
C         3.26078376198883    1.57011545341879    1.57646454525522
O         4.29641866418663    0.68794112701463    2.01435450114208
C         4.60746521953847   -0.50864894844836    1.27815015098836
C         5.76422916053574   -0.29337800793360    0.29299445104983
C         4.88104122784735   -1.49269337041195    2.43718852670837
O         5.09842496413685   -2.78990557767068    1.84730108990921
C         4.21611910817017   -3.65248557693987    2.59271572407234
O         4.17321515538854   -3.05001770113209    3.90042581313710
C         3.73415569860231   -1.75787199614653    3.42731998535555
C         2.44664443016907   -2.17772420433675    2.67572631532760
C         1.31682376684954   -2.31321678828985    3.69998843792530
O         0.06079648349762   -2.68049440879515    3.14469880862240
C         2.84584568807647   -3.48441814457996    1.92898657504233
C         2.14362400816507   -4.83490427730438    2.01761402003567
C         6.14324341625300   -0.91021398721352    3.09449184386994
O         7.23437415597597   -0.78596440954589    2.54188977154843
H         2.97918243248148    3.13612133201208    0.15637836602678
H         4.46448772437444    2.15943080199212   -0.16270609936726
H         4.37908737758796    3.39181724968031    1.10407881440550
H         2.59754990734254    0.88475173547373    1.04249659964098
H         2.66541011072685    1.95511484813111    2.41083241585474
H         3.71296748880570   -0.74663358289004    0.69070452276546
H         6.48104901283029    0.39132416230348    0.75699531635894
H         5.31229144010072    0.07353227102577   -0.63413509020014
H         6.17958647778837   -1.28326067863689    0.08439840715933
H         4.47081117393437   -4.71423606240399    2.64736614139611
H         3.61181873880819   -0.93586227966280    4.13474679967659
H         2.14963369942487   -1.44700438360402    1.91647887502224
H         1.23810319605442   -1.45402371149722    4.37585625922110
H         1.48575587513277   -3.21593107162726    4.29417656781956
H        -0.15017327618132   -2.00318571597719    2.48013086893062
H         3.05693225458935   -3.28090677057419    0.87172172911334
H         2.38046727010278   -5.37356739048287    2.94003133630233
H         2.39937492124933   -5.33319195420317    1.07500348979895
H         1.06418174590076   -4.73201149940943    1.87143228362433
H         6.04621781402570   -0.70058929996713    4.17150788903108
