37
 energy: -56.178890578522 gnorm: 0.115276090376 xtb: 6.4.1 (79825abcba525fcdf90b791dcacef51065a7a4e7)
C         3.21884617488129    2.56548677117659    1.36121610973721
C         4.15002596925623    1.80787029353806    2.28960758241402
O         5.04635896239594    0.93125772512627    1.60356358006643
C         4.54733494972013   -0.35891208089977    1.20731680278802
C         5.38196109360128   -0.71792029945968   -0.02940808675482
C         4.79746681218206   -1.42605519040356    2.29598425664888
O         5.21720945237510   -2.68997133628698    1.74433718102652
C         4.45145221406345   -3.67746623715962    2.46310037713459
O         4.20551428205207   -3.10562151918258    3.76210850729257
C         3.64956759436394   -1.89365054583373    3.20686757128575
C         2.48565977693842   -2.38667053308393    2.31182338953349
C         1.21140713794142   -2.21604192742279    3.14316686170893
O         0.11341956244454   -1.88419943376764    2.30343606633488
C         3.07333380007837   -3.73341335752259    1.79669821110953
C         2.42256638973921   -5.09249767850535    2.02945236190379
C         5.93687974491160   -1.05475859061770    3.25949932295944
O         5.86345726528139   -0.18764290350973    4.12788451081001
H         3.75868713400222    3.24627934726234    0.69559529002842
H         2.69277020253701    3.21160154570874    2.07203108603610
H         2.62165621620596    1.87100323966214    0.76268850175079
H         3.49590099939743    1.27757469221859    2.98648019242273
H         4.77989375728751    2.53102687385526    2.81797790027754
H         3.48621294699859   -0.21434807080617    0.97284595409618
H         5.31170073063381    0.15064854665365   -0.69167405171244
H         4.89333254543534   -1.57968458355683   -0.49528843995444
H         6.42341211735301   -0.98708427958538    0.16765085450337
H         5.03125923148225   -4.60428157404472    2.46065782005526
H         3.37706642592283   -1.28355612455381    4.06979683414684
H         2.34508548252911   -1.79826728454020    1.39933010219579
H         1.36591548140356   -1.46937716587271    3.93045708539001
H         1.01315332946684   -3.15268899625630    3.67220217706240
H         0.06503149405770   -2.70161708761880    1.77961087850217
H         3.31033510951522   -3.59371018798738    0.73457920677037
H         2.44547796767645   -5.32838560363132    3.09759951132889
H         3.07217023796317   -5.84329179832925    1.56411723551452
H         1.43830307449444   -5.20678384091831    1.56543078839171
H         6.81982382957630   -1.70764205954883    3.17305296748324
