37
 energy: -56.179882533586 gnorm: 0.113256196869 xtb: 6.4.1 (79825abcba525fcdf90b791dcacef51065a7a4e7)
C         3.11992960770473    2.62431225602773    1.53326778434409
C         3.32267349429911    1.17455032296544    1.93336092125302
O         4.46747087717719    0.73348888952781    1.20026981978639
C         4.69571717312599   -0.65323962223369    0.89130015506151
C         5.75846945278834   -0.78668572592083   -0.20766566483032
C         5.02484280983984   -1.50411759135185    2.13799185499072
O         5.17047277942909   -2.84783519407332    1.63679596947326
C         4.35952224444978   -3.66995977440562    2.49971037231193
O         4.38520049497933   -2.97256001511454    3.75982472274287
C         3.93863604071125   -1.71534939523628    3.20643109868399
C         2.57188585560756   -2.14375488506508    2.61709514498016
C         1.45163966111793   -2.07803582266551    3.65858223155649
O         0.17854086539914   -2.07540838503162    3.02608201634194
C         2.91830245496861   -3.53061628120334    1.99980917406542
C         2.10296515251869   -4.77067993917411    2.34945203636976
C         6.28454172235113   -0.98941162761471    2.85403702455148
O         6.30218617527604    0.06259522755722    3.48991716870120
H         3.13833034316799    2.83925346710436    0.46022558691128
H         3.96712600566438    3.21986923325308    1.88970615302105
H         2.14968683408705    3.03306693434496    1.83113871725156
H         2.49801486463327    0.50749011527390    1.66936630107276
H         3.57832186541670    1.10048093215824    2.99544457974757
H         3.76311056392993   -1.03503088208322    0.45963408527725
H         5.57609682787663    0.04111856656137   -0.90007078073033
H         5.46904305491482   -1.69640544623729   -0.74346640644607
H         6.81177762313359   -0.76781825017349    0.08574125801254
H         4.80810078923058   -4.66603469549727    2.54191056185630
H         3.85434026098571   -0.90379409721413    3.93126985881134
H         2.19216177165793   -1.54600891153731    1.78215030583000
H         1.44977324665537   -1.09633153421781    4.14588111344179
H         1.53481680027505   -2.89797494430411    4.37779851905403
H         0.01631697579848   -2.94551823141374    2.62421373323578
H         2.99362714175011   -3.38052796595779    0.91556608705095
H         1.20115489863044   -4.84767861887076    1.73470342141802
H         2.05476989855819   -4.62149026421608    3.43464022876211
H         2.58260487753637   -5.73185969351585    2.14153176414123
H         7.20790606200478   -1.55674883968074    2.65694102716368
