37
 energy: -56.177188949907 gnorm: 0.119652993027 xtb: 6.4.1 (79825abcba525fcdf90b791dcacef51065a7a4e7)
C         3.77732934338019    2.96524835043129    1.02253406322300
C         3.47152746329049    1.49714132327552    0.78986211728992
O         4.19936430561803    0.67969863286783    1.70886145886687
C         4.63600970365031   -0.56419893646072    1.13211693658302
C         5.84151868469047   -0.40496100495460    0.19597190245556
C         4.97987788249767   -1.51155019337477    2.30294463157652
O         5.19650978483757   -2.79261391050829    1.67850185856717
C         4.30207702943210   -3.65701183100752    2.40716992063690
O         4.22544534546137   -3.09343961643665    3.73058516874439
C         3.79997855644866   -1.80083719447871    3.24643658113204
C         2.42460203391895   -2.17573954828418    2.64092700511632
C         1.47205762338811   -2.50169196281349    3.79434803103439
O         0.18477388555010   -2.86988436339561    3.31666727434394
C         2.89473830647673   -3.42974536645744    1.84665232821764
C         1.99682206853879   -4.65731632036519    1.95435057598947
C         6.20206442415973   -1.09283989745570    3.13686669771196
O         6.16741067605299   -0.23866966471335    4.02036295552085
H         2.91221228677460    3.60402872972116    0.81884318188571
H         4.69414660105617    3.22691277779079    0.48359435940278
H         3.87841746561665    3.11416710297995    2.10178515433460
H         3.50969362847241    1.27735246167527   -0.28016617064749
H         2.42658720929537    1.28794136169921    1.04125684147046
H         3.77719986307358   -1.08963722189401    0.69827880433238
H         5.59114902745073    0.25804475941775   -0.63810420542739
H         6.39108915680247   -1.25895254451305   -0.21281995053290
H         6.62083607492602    0.12514651328419    0.75054573674051
H         4.57459663804191   -4.71442169824459    2.45995486980088
H         3.81119927596872   -1.09908134436901    4.08221875193231
H         1.91293777681234   -1.41404482911620    2.04372992368618
H         1.40920666349458   -1.58568659995075    4.39283857242408
H         1.78575209632931   -3.31568392808035    4.45427494231196
H        -0.39567785602243   -3.07704859776326    4.06837506866307
H         2.97975735540154   -3.26413007749075    0.76539069515453
H         1.06305329604419   -4.34605545299021    1.47654418679448
H         1.65816417939637   -4.90966842735136    2.96620184928778
H         2.48990591497376   -5.49927714351927    1.45925268598111
H         7.12914198582840   -1.54163272418927    2.74644097147789
