37
 energy: -56.179187403477 gnorm: 0.121703923167 xtb: 6.4.1 (79825abcba525fcdf90b791dcacef51065a7a4e7)
C         3.49997311762576    2.80436024942561    0.89914050370911
C         3.97480245209966    1.69947629461742    1.82475262917725
O         3.44265161951644    0.45019552301844    1.37907131433367
C         4.23029631025962   -0.62653211953593    0.83976805037063
C         5.35460030727539   -0.22458152479255   -0.12426119370919
C         4.81540663355574   -1.51083388073236    1.96325080865136
O         5.10720601458962   -2.82872161667152    1.45727902272840
C         4.49640583087035   -3.70692716445221    2.42362731375687
O         4.68540022183122   -3.00471818152343    3.66704906105263
C         3.97643405412429   -1.83146159546735    3.21198991832256
C         2.60913449169445   -2.35915955369959    2.71110968825507
C         1.53475434557759   -2.39264174533377    3.80131707493509
O         0.27496610667999   -2.89330913277210    3.37340384374988
C         2.99968143238493   -3.73656665712972    2.09902003585063
C         2.32903911615634   -4.83624673651936    2.91494009871513
C         6.00459706782571   -0.99522018693676    2.79056751194240
O         6.19329199932150    0.20905179101920    2.95024389181219
H         2.44084975899947    2.57699465748327    0.74255037902500
H         4.08687635660973    2.87442000910147   -0.02287596919210
H         3.66689572762653    3.72196122794567    1.47126269877798
H         3.55454233683644    1.88909100090492    2.81578846727171
H         5.05507113280793    1.73536923203027    1.99966783563483
H         3.50988041871326   -1.15501647140045    0.20450395029712
H         6.20225580957480    0.28212155679449    0.34762512309767
H         4.91374675069638    0.45789737807609   -0.85795781270712
H         5.64991916715404   -1.20123618892330   -0.51775090901542
H         4.96849140269192   -4.69263127549507    2.39733208944264
H         3.89679027712921   -1.01699886162059    3.93408849128359
H         2.26944758931589   -1.72806636480959    1.88348796091465
H         1.33204624194142   -1.42245110347689    4.26912744168838
H         1.81324189848766   -2.98799125663927    4.67567073064015
H        -0.09061202040223   -2.30827168400997    2.68857563962912
H         2.79089885670943   -3.86053216211271    1.02905472093444
H         1.24317424516612   -4.81608399150296    2.78228513240270
H         2.73817370486525   -4.76106229384989    3.92942023346260
H         2.67140871707435   -5.79103852171742    2.50468732889782
H         6.50654494071770   -1.85827055646969    3.25587650198142
