37
 energy: -56.181958370192 gnorm: 0.114727022152 xtb: 6.4.1 (79825abcba525fcdf90b791dcacef51065a7a4e7)
C         3.28691167953125    2.74678533925899    1.55432712724276
C         3.32503838341744    1.23934747703282    1.72510985167773
O         4.58852867836525    0.76777313999780    1.25211008083426
C         4.70283587827724   -0.59948809593180    0.81839895588783
C         5.80882561661806   -0.80691479316472   -0.22502674451453
C         4.94606579991397   -1.51828336314516    2.03627088040234
O         5.22977098049203   -2.86989384862278    1.62318121631886
C         4.37405339600279   -3.63573257398806    2.49461071991555
O         4.41159068310985   -2.89279031672439    3.72811862823231
C         3.87277645421789   -1.69677982213259    3.12356833238515
C         2.47895795524657   -2.14890709495781    2.62186591531691
C         1.42739789330064   -2.20671072163877    3.73310224647134
O         0.12077281166896   -2.23380183025713    3.17378035697377
C         2.92258600216032   -3.51479326140247    2.02021799690005
C         2.12454218196976   -4.74955071195647    2.42430102812485
C         6.15720865953504   -0.93744147897688    2.78476286315657
O         6.15040435347802   -0.04390849836990    3.62911228314314
H         3.44084372263504    2.93999962508832    0.48805744222404
H         4.03715448095623    3.28668917455946    2.14179436449227
H         2.41053262062937    3.32933532049794    1.85394987723159
H         2.49078411979090    0.76993795695548    1.19747467227476
H         3.14990591562257    0.78992677022189    2.70807156486587
H         3.80940411713985   -0.91841919493145    0.26892829323298
H         5.60650014516790   -0.30386611272661   -1.17579014025871
H         5.99943188907584   -1.86429101723097   -0.43494304405203
H         6.74782826941226   -0.34471794344662    0.09206920935281
H         4.82858644128448   -4.62356033093381    2.60759250666596
H         3.86435305790614   -0.86118849262453    3.82559063178724
H         1.97458359681812   -1.44057155547267    1.95666605055550
H         1.43794242629405   -1.32349064669429    4.38196135092474
H         1.60771941152414   -3.06823578225235    4.38252462315322
H        -0.08003724826107   -3.08148618378284    2.74248879165327
H         2.85715501399356   -3.48743946021461    0.92534175752836
H         1.04128871296493   -4.64971122511676    2.30725228921872
H         2.37305459070900   -5.13940891156625    3.41851726999348
H         2.50467076468023   -5.52412431282232    1.75147888325291
H         7.12269753463885   -1.38987173719248    2.50825201024574
