37
 energy: -56.181087625910 gnorm: 0.117878525945 xtb: 6.4.1 (79825abcba525fcdf90b791dcacef51065a7a4e7)
C         3.12207002733374    2.50330315288620    2.03862705971536
C         4.12363868062965    1.46817258458097    1.56076285253649
O         3.53944530831908    0.31729227097974    0.94699464760574
C         4.42774824493303   -0.78841851657867    0.70430937987051
C         5.66045099009387   -0.40284844525179   -0.12439793261466
C         4.91836249106403   -1.50124727920947    1.98404764221149
O         5.12815819381849   -2.88680592641923    1.64611951828604
C         4.36138723934355   -3.62161234874491    2.62093883105889
O         4.36541393713073   -2.79765093607428    3.80245707138902
C         3.87774695759340   -1.62780781044495    3.10971553469379
C         2.51639143997981   -2.10825623573354    2.54870333599655
C         1.45008960464360   -2.08362104473837    3.64704727651736
O         0.25772590230023   -2.64173130314300    3.11073979056402
C         2.91630756650801   -3.55009344907555    2.11788605951522
C         2.04364195796304   -4.69711760010983    2.61545341117276
C         6.25467879223999   -1.03352598456619    2.58403080979219
O         6.48598212784560   -0.08895671108818    3.33613516257803
H         3.68810374991147    3.37043408256699    2.39309517450939
H         2.45691240686768    2.10727827200317    2.81335784719219
H         2.33252099425060    2.77154647998356    1.33022296562737
H         4.76549810728486    1.13160984375894    2.37897207628331
H         4.75900010393730    1.97298437374682    0.82568123726976
H         3.81232627882576   -1.45996475290123    0.09427929451917
H         5.40876523195051    0.13093808490165   -1.04617381690353
H         6.04395263002153   -1.41424070817496   -0.29307582776541
H         6.41307941601160    0.12030232707622    0.47206282203525
H         4.84137689087527   -4.57901320235015    2.84039807043874
H         3.93370416404702   -0.74515333767399    3.74917538051864
H         2.06159058461257   -1.48660407635727    1.77067486814038
H         1.37320870280730   -0.99223274582405    3.71160664115372
H         1.79621622659828   -2.64466799424394    4.51992376148679
H         0.36187899087526   -2.73158695304788    2.14845919231107
H         2.85472357054839   -3.58984906794906    1.02316678513998
H         1.02093225740573   -4.68627256198720    2.22679720572870
H         1.93342799265137   -4.61402915065798    3.70318634970836
H         2.49979869298180   -5.63344490381992    2.28024624571949
H         7.02804228766183   -1.78894859692762    2.37292506063083
