37
 energy: -56.181454812727 gnorm: 0.112495230148 xtb: 6.4.1 (79825abcba525fcdf90b791dcacef51065a7a4e7)
C         4.12930200575631    2.28215061036188    1.49846565570805
C         3.08893390353349    1.21740355999649    1.79331676299760
O         3.04249304804540    0.08024394629248    0.92889207841587
C         4.17675162245436   -0.78018820230368    0.71987401572390
C         5.34816719556492   -0.27900947896631   -0.13545140097800
C         4.83837556855331   -1.40425160135815    1.96861569897066
O         5.23296144421937   -2.71919459262775    1.52905988784710
C         4.53495711552187   -3.61016418825309    2.42187229867849
O         4.67678392058499   -2.89968771737504    3.66687122131189
C         3.96389582881737   -1.73781407493814    3.18929079316796
C         2.55879696525859   -2.22973342386353    2.76201248808110
C         1.65296591141338   -2.24426899062708    3.99620239331947
O         0.32508261469513   -2.62049337505866    3.65557776344418
C         3.03296902572913   -3.56858241671677    2.12398802998420
C         2.38694291308303   -4.79811801255123    2.75301538945855
C         6.09321276790384   -0.65295151752968    2.44339567598003
O         6.22543332095581    0.54691816335815    2.67621269752682
H         4.14659224860772    2.50327159507817    0.42666137217601
H         5.09930816937949    1.89849091946109    1.83218925536115
H         3.87788482772939    3.15266555246899    2.11179399749093
H         2.05164450146318    1.55366232698945    1.71791736765114
H         3.11796170508325    0.92773643632012    2.84883293833332
H         3.78617044672482   -1.60103983714961    0.10709005564347
H         5.78294246728847    0.68424199038974    0.14926183044088
H         5.06758712470606   -0.12723514859829   -1.18267602328428
H         6.09515340776214   -1.07112581045487   -0.03315267561669
H         4.96437100343947   -4.61138309586293    2.33058577590278
H         3.94625132060546   -1.00432485358090    3.99725195486326
H         2.09440653733663   -1.51428801988149    2.07564310803065
H         1.56500102027252   -1.19902907680173    4.31391720272328
H         2.02201600719032   -2.95772478187732    4.73868036268360
H        -0.02652750205230   -2.22755530566163    2.83895309330832
H         2.86100160823657   -3.53014779285604    1.04105988241268
H         1.32575961516452   -4.53599502220261    2.80084781710120
H         2.67039222014101   -4.96746518437408    3.79857350836096
H         2.69500824333782   -5.62965102193682    2.11207838938076
H         6.93935122286754   -1.35816523136100    2.44998213030770
