37
 energy: -56.175378535185 gnorm: 0.121770696881 xtb: 6.4.1 (79825abcba525fcdf90b791dcacef51065a7a4e7)
C         2.63886937417652    2.23405666538327    1.60641322937045
C         3.51891422956678    1.35170657485078    0.74040593181014
O         4.38086183516473    0.59339265001638    1.59159635094165
C         4.85267668499448   -0.62949558203464    0.99787104792378
C         6.15720756982865   -0.40359024060118    0.22189289401489
C         5.05699346496126   -1.57119214477920    2.20535580553728
O         5.16245154345855   -2.93004619650746    1.73591286822464
C         4.17560916048514   -3.70776369014442    2.44262954985694
O         4.33133303991810   -3.12808061918853    3.75206896458441
C         4.00887752090807   -1.79155052494688    3.30940363345984
C         2.60876436276144   -1.89248068375554    2.65491875819603
C         1.44233868555532   -1.98391304250241    3.64236857869266
O         0.24731890581788   -2.39146966521310    2.98916930349685
C         2.81078472636343   -3.24981319319818    1.91921012608835
C         1.83824518849063   -4.41305331817336    2.07990292085635
C         6.32774383830732   -1.24933499748431    3.00915039507593
O         6.53629740524179   -0.42118652914759    3.89348564131220
H         1.99042303782645    2.87502147424865    1.00090572911919
H         3.30660225532142    2.82319803425531    2.24400511172747
H         1.96922371853298    1.57010440882619    2.16131918389198
H         4.19007606317234    1.95776207834999    0.12643291918319
H         2.91617322207140    0.67705412624423    0.12363091871478
H         4.07897738950398   -0.91658763460225    0.27619051239571
H         5.94585552670807    0.03877148230879   -0.75667288533800
H         6.81946393835068   -1.26941379452466    0.12086760032580
H         6.70754197856135    0.33154517679643    0.81570235258760
H         4.49658385524580   -4.75088230794690    2.50625032326097
H         4.13027457223690   -1.03326751746812    4.08489615578298
H         2.46834257677256   -1.08089181950264    1.93364991208388
H         1.28580857015816   -0.94846863088252    3.96572625874983
H         1.78141607136212   -2.73964245950028    4.35678459626086
H        -0.36438882201286   -2.73051332839851    3.66427588923990
H         2.85709819093978   -3.01738637431364    0.84794161857883
H         0.83966526165197   -4.38944780512357    1.63337487805474
H         1.63124600818620   -4.66171605270952    3.12753450310839
H         2.39562570211512   -5.22479889120551    1.60288330402619
H         7.12013187383887   -1.96354360614097    2.73465572658471
