37
 energy: -56.174241236091 gnorm: 0.128512698278 xtb: 6.4.1 (79825abcba525fcdf90b791dcacef51065a7a4e7)
C         3.11605301591801    2.57153543618734    1.53929900180249
C         3.46878109303923    1.15937536592264    1.96868939155215
O         4.66861472097782    0.70382415286509    1.33988801629601
C         4.58829814499127   -0.65034471453259    0.85993953873299
C         5.67257998472323   -0.69057801418259   -0.22527487535784
C         4.97946026844617   -1.52621451338400    2.07089018647077
O         5.27906107873262   -2.88308684955785    1.68732897692806
C         4.35977892437427   -3.63817094872172    2.50152746513066
O         4.44531222488875   -2.96142136711223    3.77023075014396
C         3.96603902674606   -1.71849334080967    3.21195664679050
C         2.58954739787555   -2.12906229206102    2.63268286629698
C         1.40458192096776   -2.08024929040554    3.60089770247682
O         0.15251616264221   -2.09514117261113    2.92787947849058
C         2.91184130169861   -3.52171615655377    2.01537192977042
C         2.12399463597961   -4.76443728921360    2.41502768883351
C         6.23381430089044   -0.95610931694852    2.75357626972390
O         6.26078302188625    0.06682171197305    3.43494114940740
H         2.78244984594257    2.61935543889246    0.49796330090522
H         3.97184908430085    3.25235807944482    1.47953464436780
H         2.25496757817858    2.84498648916379    2.15649824961754
H         2.65911457277116    0.54491144643405    1.56669616078598
H         3.52943844448139    1.03619279324332    3.05497241360862
H         3.59707378305609   -0.72969902672309    0.39838522544692
H         5.52358502770263   -0.01197230060975   -1.07099311936783
H         5.66641111684020   -1.71828085145935   -0.60240730182825
H         6.64163601347122   -0.55910591443709    0.26416073240771
H         4.67407856738510   -4.68437752112279    2.54438014967854
H         4.03062304265603   -0.94232669518614    3.97649130361078
H         2.30436857657565   -1.39888803798013    1.86839096700631
H         1.38785983835113   -1.07605430854131    4.03966848406369
H         1.41565706450807   -2.90201820999254    4.32274522383485
H        -0.08964654868965   -3.00597666129694    2.68988413285487
H         2.85424846483839   -3.41657090396237    0.92477075964413
H         1.22131750532082   -4.83226447912035    1.80047105404020
H         1.91890631120194   -4.60595039930348    3.48040763755708
H         2.64554521702438   -5.69634111535275    2.17692713773170
H         7.05140569166841   -1.68862853329067    2.66258193853986
