37
 energy: -56.182984579178 gnorm: 0.120279034484 xtb: 6.4.1 (79825abcba525fcdf90b791dcacef51065a7a4e7)
C         3.16123169333618    2.45514551551588    2.02558608063425
C         4.24827898824684    1.40613302839973    1.88105148694384
O         3.59305010448348    0.30663372032853    1.24520937685553
C         4.45434474140207   -0.72577474955945    0.73249220345519
C         5.52137759154519   -0.15826888371664   -0.21321077157923
C         4.89962785254888   -1.56208080882378    1.95268575944999
O         5.11168249954818   -2.91390023886464    1.49925499909641
C         4.34019441856602   -3.75910686460789    2.37594351759577
O         4.40169103178366   -3.03554257838560    3.61996396199685
C         3.91215790845522   -1.77487186283007    3.11270709756089
C         2.50715161837331   -2.13214865470205    2.56757884116874
C         1.36087338127030   -2.00744226739954    3.57478309298074
O         0.12836266063197   -2.44485260745687    3.01761751012549
C         2.82499481820334   -3.61270723892005    2.20515236676669
C         2.21345564536230   -4.76280733876137    2.99766263907228
C         6.27392913634946   -1.08270118339335    2.44864484489510
O         6.54476111401644    0.01242617350018    2.93723405288631
H         3.35489051173868    3.12773509021217    2.86705942901316
H         2.20380208127320    1.93341867578311    2.12858027428545
H         3.11171268283112    3.02291402320864    1.09158109642591
H         4.70490690259086    1.13132781811024    2.83535614556890
H         5.06720504774784    1.76019669737231    1.24633651885656
H         3.77967773424196   -1.32906168558952    0.11384484782670
H         5.04960410614563    0.51618711207708   -0.93465615975469
H         5.97793475008171   -1.02721689049254   -0.69790135519418
H         6.26361672763052    0.38561111290922    0.37770150819237
H         4.84921842164936   -4.72279619481925    2.46177039710384
H         4.02993484109200   -1.08513478468911    3.95026925086425
H         2.15539782937289   -1.58307313436326    1.68814217040904
H         1.25839349569810   -0.97686820417619    3.93342213941930
H         1.50382532823865   -2.72063444653154    4.39173616838837
H        -0.13548959460463   -1.91183145291731    2.24873761850109
H         2.52734385089817   -3.77399079811513    1.16151694277558
H         2.43890645754432   -4.66002125952567    4.06336116371577
H         2.81681182218181   -5.58410873524493    2.59313934454621
H         1.13169692444864   -4.80064034621905    2.83791795971522
H         7.14894955347142   -1.73198290042993    2.28711290081986
