37
 energy: -56.174975689331 gnorm: 0.121063139969 xtb: 6.4.1 (79825abcba525fcdf90b791dcacef51065a7a4e7)
C         3.42834330595062    2.84274344910417    0.93068693399223
C         4.05621056566257    1.69424750661785    1.69862510486153
O         3.37189063434349    0.49871692472694    1.31792620886469
C         4.09327771321784   -0.69188043591094    0.95371037057735
C         5.08193229268121   -0.45240137476040   -0.19528399450787
C         4.86775456675497   -1.47569626341152    2.03647328479944
O         5.15202871022242   -2.81372425353000    1.58166375042395
C         4.52274583429920   -3.69277468861504    2.53530113402355
O         4.59215678970781   -3.00550876889049    3.79932710342704
C         4.00746245358216   -1.79505723153963    3.27094989990057
C         2.63680225570845   -2.32405156311481    2.78073582679134
C         1.54592284372003   -2.29367180898211    3.85452587695505
O         0.27911722168449   -2.71395560735246    3.36523147179562
C         3.04563442134596   -3.67818665222249    2.12988607710189
C         2.36108908558275   -4.94668600985650    2.62696755697199
C         6.21131332472257   -0.97402295167008    2.59114256036692
O         6.38464493274306    0.13793462276207    3.08599587876652
H         3.73300219668391    2.93224658628873   -0.11675280944381
H         3.56459389188739    3.74218210007919    1.54054269589042
H         2.34897871194706    2.66904369340848    0.88620111614418
H         4.02575811560687    1.83936415053358    2.78155545341991
H         5.12037115386994    1.59099064333564    1.46248040039974
H         3.30035580679482   -1.36956844159413    0.61626546083820
H         4.40527974076097    0.14550050423363   -0.81383006545731
H         5.34555135996201   -1.46128333841581   -0.52860398640553
H         5.92841823111273    0.11237307097449    0.20520707481907
H         5.08491895307377   -4.62922752280052    2.58205893371092
H         4.11868217733915   -1.03574689392751    4.04696343294218
H         2.16604945703040   -1.77120419057491    1.96136099872709
H         1.42814003210235   -1.32127991999694    4.34624552949092
H         1.89436029672373   -2.99611160952441    4.61719247642796
H        -0.29246831537615   -1.95630125075408    3.15509889045518
H         2.89382008853565   -3.54580766015998    1.05136319944405
H         1.28924032051073   -5.00835335707429    2.41615068154218
H         2.56676229435951   -4.97973088732180    3.70345272745377
H         2.88448186971611   -5.75615823418543    2.10931290157504
H         7.00788891935136   -1.73305476522968    2.64269908301533
