37
 energy: -56.181840557793 gnorm: 0.117173235564 xtb: 6.4.1 (79825abcba525fcdf90b791dcacef51065a7a4e7)
C         3.26240601615973    2.33636475036983    0.34393815858487
C         3.00365348199256    1.43039871061362    1.53358597129606
O         4.18156900101968    0.79200822002330    2.03107105213277
C         4.64388254812237   -0.38441973112579    1.34342431103578
C         5.93814377641667   -0.05722688431056    0.58658294414445
C         4.98897255561796   -1.47234089604745    2.38452833515566
O         5.27661985012616   -2.65733564798305    1.61574431438851
C         4.28799725197822   -3.57368158075180    2.12671040990757
O         4.37047006195657   -3.31151183807516    3.54070448089839
C         3.95071705198617   -1.93465823506814    3.42101982218960
C         2.56581204499779   -2.05539942405198    2.73814803325576
C         1.58302506695667   -2.46596579409505    3.83793478352004
O         0.23960262295673   -2.51594276139091    3.37580665597919
C         2.90222349869605   -3.12235091564292    1.65515551103059
C         1.93528386701627   -4.28781254891257    1.47764537800537
C         6.30357559438274   -1.31472025377788    3.16648666009089
O         6.44693012637858   -1.20794480445964    4.38280149233964
H         4.05258324481621    3.06676744597873    0.54416232440998
H         2.33531602398878    2.91442546589071    0.26759606603636
H         3.43197755305517    1.85506760760403   -0.62393428729289
H         2.11508686708084    0.84978217430973    1.27270642468857
H         2.70067555011970    2.06244160334554    2.37476978962737
H         3.82106120146360   -0.76852542142383    0.72919057694406
H         5.79304450045361    0.65556742418262   -0.23122817865358
H         6.43036672078967   -0.98280214639954    0.27119897943300
H         6.62969655908311    0.33688297716237    1.33647218939049
H         4.68009927821106   -4.58324923005363    1.97772056628685
H         4.02266709297602   -1.39492367627479    4.36686801092793
H         2.27719274300696   -1.09962133473828    2.28891463121702
H         1.64167395817976   -1.75163366411056    4.66708911679840
H         1.88431097146798   -3.43697567056479    4.24149059340190
H         0.24624459107192   -3.06235287552436    2.57188021435639
H         3.03840107653466   -2.65045576724400    0.67405713937834
H         1.73416185195470   -4.85705036510955    2.39012805241955
H         2.38885880371997   -4.90049678932411    0.68954541670868
H         1.04559262061581   -3.83493845343680    1.02986622821745
H         7.08358037559921   -1.59267968251595    2.44009066109760
