37
 energy: -56.178856536441 gnorm: 0.131206364977 xtb: 6.4.1 (79825abcba525fcdf90b791dcacef51065a7a4e7)
C         3.31561165399928    2.71164657752169    1.52408100482053
C         3.33091651629734    1.19592942169601    1.59726933786773
O         4.61901431920232    0.72703955352297    1.19296110009043
C         4.80131084156032   -0.64414137507217    0.79646966656101
C         6.05068100853366   -0.62111924546575   -0.09432791134963
C         4.94840449588414   -1.50076272389712    2.07362296307915
O         5.22534272452259   -2.86257399002484    1.69053327111285
C         4.34839727076530   -3.68428890802642    2.48671297765396
O         4.25779207792474   -2.95920964133580    3.72806898222659
C         3.82203445777604   -1.73666103872258    3.09424481889790
C         2.45630135523603   -2.18611279965230    2.51837989371136
C         1.45864801079677   -2.08355586574445    3.67515808061685
O         0.18705306857233   -2.41970796033492    3.13581399232634
C         2.91174881981217   -3.56952400133417    1.96776930416410
C         1.97694894595248   -4.73637596382815    2.26674859735364
C         6.15611747998131   -0.94530200297833    2.84652466334217
O         6.10072095754554   -0.16068528996215    3.79134271939947
H         4.11964911931481    3.06120392602250    0.86887776592524
H         3.48778271828955    3.21599966615123    2.48087944089312
H         2.32908207745211    2.93537639606799    1.10708833800786
H         2.58130766429787    0.81299209712075    0.90001048126615
H         3.09980587782004    0.77543527810180    2.58146271925226
H         3.82668632859394   -0.89401204272835    0.36112272247714
H         5.75371385905130   -0.19263305792822   -1.05669721001988
H         6.16694093431706   -1.69905867634816   -0.24588734481967
H         6.90789909579984   -0.08846797150442    0.32681515571926
H         4.84680807441129   -4.64664486984345    2.63033221957195
H         3.89063876451154   -0.94249705488399    3.83970845568194
H         2.03466072842456   -1.58240678056214    1.70820599991876
H         1.40842826307477   -1.06164401015360    4.06807172590019
H         1.70120048322925   -2.64473430265585    4.58220699250129
H        -0.40602883337948   -2.64199623311835    3.87320644839669
H         2.91499486559288   -3.46553119823797    0.87554298045581
H         0.93881235561525   -4.41116708778454    2.15005242275891
H         2.19183432097376   -5.01148553354835    3.30614878635971
H         2.29446381942673   -5.57881412297290    1.64494968982103
H         7.13011471529522   -1.31908368429536    2.49306080408790
