37
 energy: -56.175284304223 gnorm: 0.132288233460 xtb: 6.4.1 (79825abcba525fcdf90b791dcacef51065a7a4e7)
C         3.06530974870410    2.87522846507142    1.57530720626402
C         3.69045935713433    1.70110866098472    0.84481427785581
O         4.23536704078494    0.68066119817558    1.68402903124653
C         4.58731969743559   -0.50544500832383    0.94928009071425
C         5.86457451646968   -0.37605549560358    0.10853361256489
C         4.89887864473541   -1.52307177746869    2.06906756777981
O         5.09033505121673   -2.87053337418407    1.59401591773168
C         4.30882513024349   -3.77386034310576    2.40110542936587
O         4.38605059793269   -3.02617977716762    3.62989506481886
C         3.85108256972368   -1.76631314527102    3.16860541436616
C         2.49050237082449   -2.20087254062259    2.56957798145398
C         1.43980571306647   -2.15652315341347    3.68224844310697
O         0.13128487695760   -2.44920366510399    3.21006700680976
C         2.82472378092909   -3.63015272375867    2.05007324773858
C         2.07437768119986   -4.74909073967584    2.76403499151865
C         6.08259901878989   -0.94756849464812    2.86410613522040
O         7.01096891448747   -1.53181909316943    3.41922222929044
H         2.57515522830892    3.55511943159571    0.87142178299099
H         3.88312660364165    3.38906333023110    2.09166704614150
H         2.44992048108475    2.39637739981607    2.34288536352565
H         4.41111402015068    2.03398633039772    0.09343311545536
H         2.95631802335550    1.22866773799889    0.18398136331933
H         3.80216571146131   -0.81391019707375    0.24911033451597
H         6.68629642220373    0.19774836357378    0.54838222619325
H         5.68761748566726    0.02316079290102   -0.89533520544919
H         6.17511855816057   -1.42249855963697    0.04204277567227
H         4.75540677714028   -4.76956269211326    2.33545124943116
H         3.75767082116674   -1.03700081719805    3.97513922152944
H         2.18084197738144   -1.51606803873755    1.77347701579189
H         1.52141119612274   -1.14438623867488    4.09471226816236
H         1.62504241436368   -2.93484270828175    4.42816848260358
H        -0.17114882120022   -1.89944113495699    2.46763797331546
H         2.80079806893598   -3.77162561657821    0.96232495054041
H         2.63369292948870   -5.09350705127673    3.63904941884414
H         1.93803397886949   -5.59679608609854    2.08211139521131
H         1.11456409164722   -4.43250091849696    3.18317743030980
H         5.77644285393947    0.07140895685410    3.14919106186971
