37
 energy: -56.168099223387 gnorm: 0.129662931970 xtb: 6.4.1 (79825abcba525fcdf90b791dcacef51065a7a4e7)
C         4.23437803228398    3.19963937308350    1.70678321015922
C         3.92085106544368    1.72448018080195    1.87588511022136
O         4.74068153546214    0.90476418973656    1.04014443337068
C         4.46338529184086   -0.49726714829949    0.87284385526420
C         5.31821294588851   -0.95628321447696   -0.31608426167022
C         4.71082508216249   -1.44560782967733    2.06698818078080
O         5.11078563724062   -2.75049888198874    1.60301267178075
C         4.45993109800111   -3.62900382759727    2.54257016782003
O         4.24295595408047   -2.86412530063047    3.74373485220657
C         3.58665436995267   -1.77091328867770    3.06520808200686
C         2.39037552362791   -2.46004008220620    2.36315724625194
C         1.21801920415817   -2.44024472759908    3.34761379276474
O         0.01958115424373   -2.66945548803681    2.61819440879297
C         3.00707354452302   -3.86904869958084    2.12065111531950
C         2.63328521358186   -5.13524132578614    2.88342332265055
C         5.82414192523360   -0.68145252933545    2.80256723765230
O         5.53123962039775   -0.05589385373260    3.81955194538917
H         3.86478918070866    3.49493051222739    0.71978519018142
H         5.29587143085260    3.46077192304317    1.77401201975506
H         3.62794945953333    3.72425804498540    2.45122807312470
H         2.89644727473490    1.56705043080509    1.52870060759358
H         4.04081445448701    1.42662962943563    2.92266965814780
H         3.46678231318488   -0.82036918927599    0.54997729849893
H         4.93703039162005   -0.38027936529273   -1.16512135650725
H         5.33191954356409   -2.01328169055050   -0.60070046011606
H         6.38293750764829   -0.73222437799980   -0.20626189574299
H         5.08218823218846   -4.51613034385554    2.68738527999106
H         3.22716082831938   -1.03138712590893    3.78283224388006
H         2.12957397454976   -1.90713844844539    1.45491397205682
H         1.21672603151011   -1.45558451014805    3.82891367716754
H         1.35748828917851   -3.18032751681929    4.14090851006140
H        -0.73870000143398   -2.40482946524387    3.16581527153367
H         3.15494003706509   -4.10210911081248    1.05876518771213
H         1.53957660157743   -5.16108008941087    2.86792422711127
H         2.97001920134466   -4.99106909163744    3.91688272697573
H         2.99562434319404   -5.99038244556130    2.30498088967588
H         6.84771502877685   -0.84371637537485    2.42935336891093
