37
 energy: -56.173504159030 gnorm: 0.137639502852 xtb: 6.4.1 (79825abcba525fcdf90b791dcacef51065a7a4e7)
C         3.29375901722656    2.30741234519145    0.41979588657389
C         3.20581993815428    1.59886236145511    1.75890489344788
O         4.38882871026904    0.83893001206087    2.01485788729453
C         4.66378305315941   -0.35703243868960    1.26342679070313
C         5.86056739653600   -0.21488693592838    0.31343824097682
C         4.99190458426593   -1.40616661132757    2.34888124173037
O         5.22030527796565   -2.72036282075576    1.80234295960093
C         4.28132984976933   -3.64658842689615    2.38422114991815
O         4.22439365629827   -3.16183383235414    3.73946477385903
C         3.85526925717110   -1.83963743071748    3.29025789387093
C         2.53016716611400   -2.18328230197041    2.56578076771692
C         1.42653521085783   -2.27562531259620    3.62286890590257
O         0.16514861206867   -2.59566043316739    3.05074531854210
C         2.88504547161026   -3.47814388896045    1.77722131772174
C         1.96415649358715   -4.65083313730760    2.09588489321348
C         6.15596649222070   -0.87533232412713    3.20191082900199
O         7.22048955730054   -1.48361067338883    3.29225210847910
H         2.39114411227975    2.90295236517425    0.25075064489423
H         3.40933816899195    1.58150814313063   -0.39210479465994
H         4.07943185700889    3.06417489635396    0.50469085874667
H         2.39490747432290    0.88799484415881    1.58054373279747
H         3.02790710529363    2.25163296786473    2.61977749831686
H         3.71791491140640   -0.57042672236938    0.75190775149338
H         6.83123978361059   -0.36856288602892    0.79523013913291
H         5.94310412001328    0.78025863599929   -0.13524100849653
H         5.71363328654292   -0.92224571466229   -0.50750979695291
H         4.72900196824100   -4.64338027403398    2.35009542092732
H         3.82590441478817   -1.16738016821474    4.14951748557126
H         2.21945183983309   -1.42522618232155    1.83953664409508
H         1.42271114953146   -1.39583469158148    4.27644436739511
H         1.79405684418697   -3.10138858115474    4.23893187598613
H        -0.23688448055200   -1.74661407567619    2.80095433581878
H         3.00107460211974   -3.20451884854984    0.72107263536525
H         1.79949351582801   -4.86024837275074    3.15708128880945
H         2.26496828266089   -5.64009761446631    1.73108104331744
H         0.95490231364283   -4.43834035953130    1.73063911394299
H         6.00833963108540    0.08682739916400    3.71744469234620
