37
 energy: -56.173636542928 gnorm: 0.120325439892 xtb: 6.4.1 (79825abcba525fcdf90b791dcacef51065a7a4e7)
C         3.17022735761454    2.76576217820231    1.54680706788978
C         3.35941634478209    1.27701259812464    1.77224326595019
O         4.49072501143106    0.78374772887977    1.05158434755208
C         4.54323543249523   -0.64306755388410    0.87265584480992
C         5.71064682781095   -0.82230092306729   -0.10714118040849
C         4.94389114361762   -1.50135312710160    2.09305663790058
O         5.26798168725387   -2.85798909733641    1.72906957718990
C         4.45175982004435   -3.72234580437280    2.54443465427710
O         4.33224279868286   -2.99217728732566    3.78034872651314
C         3.89501068983521   -1.74821289752269    3.19075264300347
C         2.57791394005823   -2.17931623412168    2.49918897843144
C         1.53491829664141   -2.10660522178825    3.61759816519153
O         0.17666303148262   -2.16394776372973    3.20202814241534
C         3.01068733896164   -3.60249655836531    2.03908471452056
C         2.03150907069326   -4.71606030396358    2.39400532119664
C         6.21451987027536   -0.96897347683976    2.77610776364130
O         6.27550546430759   -0.02992872271314    3.56721396466186
H         3.29171759374639    3.06314668796472    0.50049906121304
H         3.83621765556612    3.39330526243800    2.14857509659505
H         2.16695790941620    3.14447560076725    1.76407436280649
H         2.51414516876743    0.65926825393333    1.45818450938742
H         3.58903493082293    0.97177557052623    2.79838639731969
H         3.61114773756255   -0.99632921092699    0.41628540476748
H         5.61491236186248    0.04540219291436   -0.76734629160361
H         5.69050222005603   -1.75649852770092   -0.67749990451863
H         6.64097541476680   -0.59420220843460    0.42045849325738
H         5.01643674506759   -4.65778670572135    2.57991853069544
H         3.76701149197272   -0.93885067214919    3.91163267190240
H         2.19322621158943   -1.64772955232297    1.62280180654734
H         1.56641989375678   -1.17030547828089    4.18641926148967
H         1.84332277707122   -2.95105950095570    4.24071478745816
H         0.05333915972181   -2.86863144341251    2.54391114125601
H         3.04600321967293   -3.64704757667854    0.94338795742357
H         1.07248712431536   -4.44647905632815    1.94155725727332
H         2.05068026815320   -4.98213775279123    3.45751320024251
H         2.31125403468281   -5.64928156821769    1.89601691126889
H         7.13075889533514   -1.50599233354621    2.48381192384681
