37
 energy: -56.174790233227 gnorm: 0.132295279276 xtb: 6.4.1 (79825abcba525fcdf90b791dcacef51065a7a4e7)
C         3.24461069254913    2.58844738922326    2.03701959553405
C         3.79052757324936    1.68440412454127    0.94721695310116
O         4.26233094674882    0.48109488068729    1.55710812795151
C         4.68738734854227   -0.65796647605961    0.78740630689619
C         5.89796611122501   -0.43421356344246   -0.12878680630233
C         4.83922418497175   -1.65653835298572    1.95631904561259
O         5.04331507657365   -3.03455635828527    1.58564979930848
C         4.29960867280891   -3.74332130876736    2.59693803330482
O         4.40215653913005   -2.87976192483986    3.74526860375489
C         3.80311542038872   -1.74039603573415    3.09010605223711
C         2.46781823392147   -2.22661724619707    2.47413155993430
C         1.30764245784628   -2.04275403803613    3.45604417463277
O         0.06784539966428   -2.01736951940958    2.76098816957648
C         2.79743123902921   -3.73806253903436    2.29715877998462
C         2.13755470650059   -4.80971955559753    3.15791259527616
C         6.17404649319101   -1.30833476008791    2.63564810882817
O         6.35348614661502   -0.40766659668436    3.45294339883180
H         2.15047635128290    2.58067344080045    2.06472298963946
H         3.56399399504577    3.62877306932716    1.91375181687807
H         3.64137070710008    2.18281814508491    2.97255416341975
H         4.65756651417259    2.18934565259278    0.51362513308683
H         3.08077309155236    1.41530333195729    0.15810517346469
H         3.81346187844126   -0.93810991732916    0.18771541092254
H         6.73000354306418    0.06413467115616    0.37846786822520
H         5.74531475686327    0.09263434007810   -1.07618792375736
H         6.27770092884287   -1.42908903747992   -0.37763609906381
H         4.72333631978059   -4.73689132457054    2.76558654130706
H         3.75779936214683   -0.80506945700380    3.65066796860993
H         2.19803759097112   -1.69831849632222    1.55394551754622
H         1.48287346497651   -1.09858416594386    3.98429065334504
H         1.27160540429328   -2.81301166434164    4.23186321913112
H         0.02121475252890   -1.26186157061466    2.15112000854392
H         2.67731530310391   -4.04466751621534    1.25056959032727
H         2.16892238197752   -4.43814394362304    4.18653012687276
H         2.68495008795722   -5.69914632090647    2.82400829678158
H         1.09518278372019   -4.88722006725860    2.83448397195698
H         6.91092596055794   -2.09509919597996    2.40908588634005
