37
 energy: -56.175936022376 gnorm: 0.135225429654 xtb: 6.4.1 (79825abcba525fcdf90b791dcacef51065a7a4e7)
C         3.37950288344347    2.87449367018089    1.41642349838036
C         3.40206792285890    1.46697455939756    0.84952841702612
O         4.21152895062099    0.59590096433259    1.64232248590741
C         4.65996923025286   -0.61806615879901    1.01322811417827
C         5.91000776731810   -0.57222924728166    0.12425187158655
C         4.98011612167702   -1.57868287365337    2.17996659074744
O         5.26263562934646   -2.90128578405427    1.68108118265690
C         4.34424068824323   -3.70032810334858    2.45324241040988
O         4.23417756193170   -3.12511387002359    3.76927001711409
C         3.90009753274327   -1.82003823380632    3.24829885188965
C         2.52529598750096   -2.14395154001402    2.61280294095341
C         1.48401026640959   -2.22936652549064    3.73190713400158
O         0.22156402535429   -2.62502232724287    3.21178220871976
C         2.95590605663582   -3.43800262637605    1.86151225290943
C         2.06279064376883   -4.63871541379941    2.15377340275437
C         6.24681414198960   -1.04307091497940    2.86777484682745
O         6.15058121984030   -0.22242770523534    3.77808097681183
H         2.59319794806976    3.52767088419362    1.02521774284263
H         4.40300708955381    3.25659147345305    1.33949126434327
H         3.24754477953797    2.74912826888878    2.49533456756548
H         3.75939182493023    1.50865149759582   -0.18260868421269
H         2.38594587990393    1.07049415484487    0.94525377988739
H         3.82941940104249   -1.11640065763919    0.49970601205774
H         5.56869373278913   -0.10942805985674   -0.80701841849966
H         6.31638023819259   -1.57618262724939   -0.03505619258695
H         6.67761974805276    0.06581510325535    0.57098776671809
H         4.73943750614087   -4.71931658593182    2.47875233359249
H         3.80482411574699   -1.17077546082867    4.12036525171450
H         2.13041816874419   -1.39050994947101    1.92358543141841
H         1.51576026496466   -1.24372642831916    4.21014611772415
H         1.71275591941068   -2.91356587528716    4.55412203092565
H        -0.52706052802917   -2.35858122868720    3.77167172406719
H         2.90657329734608   -3.32499550018841    0.77129253333683
H         1.00759828705855   -4.49701793013291    1.90158834847022
H         1.93852356719775   -4.79611347468278    3.23173318524739
H         2.42100989740224   -5.43799731248456    1.49804553264871
H         7.20362134362727   -1.57057152173432    2.72783514265429
