37
 energy: -56.174289024219 gnorm: 0.121342722960 xtb: 6.4.1 (79825abcba525fcdf90b791dcacef51065a7a4e7)
C         3.13595844274156    2.60477134468737    2.06234896309933
C         3.24393494891247    1.47597017789391    1.05381623468290
O         4.40104861737739    0.73455022422390    1.44612123023826
C         4.73718001243630   -0.55339173455955    0.89949906430364
C         6.01545753877472   -0.45606120894351    0.05598884471900
C         5.00283006030770   -1.56156594120681    2.03948679444367
O         5.18471315150241   -2.90275596321753    1.54339177324009
C         4.43136759981786   -3.73507502482743    2.44775139093808
O         4.37027316940096   -3.00867440549283    3.69013763630103
C         3.90998188320096   -1.77277272649814    3.10113693137239
C         2.57538070711421   -2.26570564731295    2.48900047452778
C         1.35997038975662   -2.24103517196457    3.41966422538022
O         0.30418482804027   -1.82044652212103    2.56569349563588
C         2.95669907860998   -3.70526289907796    2.03435535484145
C         2.18299141827362   -4.86761343190907    2.64680994178707
C         6.18975423321366   -1.17802749331243    2.93870510045736
O         6.10303081065268   -0.20931355469149    3.69066632081539
H         2.28055551115359    3.21433371850518    1.75465202413039
H         4.03123429444743    3.21425825240272    2.22509114616297
H         2.89526122668030    2.16269463587494    3.03384860503455
H         3.43018190243114    1.80213540006478    0.02734039139814
H         2.41313975745052    0.76585286645220    0.98765873479588
H         4.02306749304820   -0.87894425086984    0.13404879965209
H         5.84717734486016   -0.01826544620444   -0.93293036886560
H         6.31160323934754   -1.50822558554043   -0.00473920415612
H         6.75805640592674    0.09961573056824    0.63536072523649
H         4.93803420200233   -4.69376111193603    2.58695897769660
H         3.78217221198331   -0.98793398234341    3.84867411698668
H         2.28431864930068   -1.57994725188294    1.68672756539307
H         1.53813243612998   -1.44620387087117    4.15295031166471
H         1.19817314423496   -3.13957724462459    4.02210464721783
H        -0.54319966343667   -1.96182652415551    3.02050892110387
H         2.78096077742003   -3.67956626006893    0.95165543660623
H         1.12727279891296   -4.58445461573249    2.69565328933663
H         2.48395052449351   -5.03520496392494    3.68774723377878
H         2.24165529344434   -5.73535366165642    1.98292962837174
H         7.01013642123030   -1.89498577607643    3.10076664036172
