37
 energy: -56.169816519541 gnorm: 0.138130537281 xtb: 6.4.1 (79825abcba525fcdf90b791dcacef51065a7a4e7)
C         2.38808117698383    2.28341465303786    1.54103410922755
C         3.38527451297764    1.43021154830765    0.77903727237020
O         4.11094515260854    0.57805910490452    1.66772008659011
C         4.66195788291337   -0.59032602098266    1.03381490790614
C         5.89535559136464   -0.26765050970278    0.17965640393508
C         5.03882360131475   -1.51211524040248    2.21484583750980
O         5.18083439266331   -2.85287291692045    1.70476330195161
C         4.29906474477678   -3.62571429426575    2.54342256273125
O         4.42029737096202   -2.99767199351905    3.83407336385183
C         3.99837651769797   -1.71151021520164    3.33007582228428
C         2.63086216669322   -1.99645673348078    2.66107346077414
C         1.46161359621753   -1.92541196094065    3.64686060001884
O         0.21933309591532   -1.56340160756455    3.05819123465026
C         2.85811044088865   -3.41774157276701    2.06715547911731
C         2.12853619206578   -4.69705288899796    2.46195527941295
C         6.46166151106970   -1.25586505123302    2.73863240645254
O         7.19408692125737   -2.14056400994974    3.17707746917800
H         1.66575393154616    2.67862783515078    0.81991847294631
H         2.85167324203746    3.07024455441721    2.14556637805274
H         1.79479825932858    1.65313502271860    2.21031841946226
H         4.00968939478225    2.19350962689113    0.30764949572376
H         2.93624701346837    0.74374294543900    0.05377923129457
H         3.88475565556203   -1.05254050035958    0.41400065120717
H         6.18986363532073    0.77406804696056    0.34100083104013
H         5.68207056332085   -0.36305472297711   -0.88985169308995
H         6.67083668259032   -0.96413343172949    0.51047709657940
H         4.56881169041891   -4.68505983865031    2.52955111609836
H         4.00916986436968   -1.02875791407927    4.18145810150926
H         2.38196410781186   -1.30908702803005    1.84609116244288
H         1.64117788514866   -1.23397026762863    4.47804772469172
H         1.22933096381219   -2.86181007019759    4.16231575858059
H         0.49899247667636   -0.73371218373029    2.63592124567227
H         2.83325388680257   -3.36989890683975    0.97131032328059
H         2.23188282963437   -4.85103335048983    3.54024831873157
H         2.48820964029220   -5.65361346276536    2.06466366849729
H         1.06267759119116   -4.51328833386975    2.29664449315907
H         6.75465043985947   -0.21100311317550    2.92768545461955
