37
 energy: -56.176079248452 gnorm: 0.126002641245 xtb: 6.4.1 (79825abcba525fcdf90b791dcacef51065a7a4e7)
C         2.63661898382321    2.23148244919139    1.77572973311140
C         3.83321135078025    1.40766979386723    1.33699437837272
O         3.48421468790764    0.14594935413098    0.76359946294372
C         4.59824633802841   -0.75339265971831    0.61975156679556
C         5.74999002984189   -0.08215704527163   -0.14044945142543
C         4.99749057478876   -1.49702102023493    1.91365207556459
O         5.11970414091895   -2.88934250216581    1.56082442775432
C         4.33384837014835   -3.59336109136261    2.54313774466204
O         4.46453920298338   -2.82977294491024    3.75753761833277
C         3.96693356674832   -1.67856788857474    3.04104721054105
C         2.57070411277505   -2.17450791850670    2.59000263765285
C         1.59234527208198   -2.06406339165663    3.76242832524415
O         0.26510455434045   -2.34892788092121    3.34037583016063
C         2.85361853942979   -3.64165109245515    2.15195992521401
C         2.27683340547847   -4.79595542450175    2.96416889766170
C         6.33610596509927   -1.03265266002933    2.51110960233197
O         6.46570632065793   -0.33601769574009    3.51573735658998
H         1.82008794631537    1.83524523109650    2.38747396847545
H         2.06885775414131    2.57173412900135    0.90317363304716
H         2.99398376362428    3.05377445108329    2.40286991249502
H         4.53624050238711    1.27223386201325    2.16290689071384
H         4.33788075577734    2.08392485386359    0.63924659521058
H         4.21828930302950   -1.51540122280440   -0.07077792054427
H         5.53617963094477   -0.02546838212911   -1.21237114756853
H         6.65999813584183   -0.66099216460452    0.04736758555547
H         5.99510692243018    0.90999308992349    0.24872606514900
H         4.76332793064906   -4.59591477661511    2.61798600759259
H         3.86621089667370   -0.80619666718716    3.68907694967411
H         2.32772654881716   -1.51776959976860    1.74840874920826
H         1.63294013324381   -1.08555573985260    4.25444647451615
H         1.89089490797874   -2.73175857671345    4.57578062085968
H        -0.04026084151594   -1.54074960781091    2.89483603310387
H         2.73114593907543   -3.85199336887697    1.08212815559469
H         1.19363619061897   -4.88828973528726    2.84061900378095
H         2.54620793805318   -4.74095439529388    4.02559530416715
H         2.75218790733065   -5.73036681326240    2.65101542620184
H         7.24375197778249   -1.46146154417853    2.05765416340242
