37
 energy: -56.176053448446 gnorm: 0.132844655142 xtb: 6.4.1 (79825abcba525fcdf90b791dcacef51065a7a4e7)
C         2.27256120961326    1.97180011544920    1.51965213745475
C         3.32202918860067    1.19718933814735    0.74403343593128
O         4.02462243865991    0.41877013732012    1.71508702690005
C         4.78843533575185   -0.65369477826587    1.13458427219610
C         5.92811819152026   -0.30240197500452    0.16882422378388
C         5.14144016608225   -1.62448916558967    2.28328049991472
O         5.31093630901542   -2.93070349644307    1.69756931739288
C         4.31295724534387   -3.73270869399542    2.36012219691685
O         4.37798778517327   -3.27283609020369    3.72364784513036
C         4.07800501492635   -1.90812380457994    3.35784249225916
C         2.67637406555040   -2.00811584953094    2.70646972649903
C         1.63222580812982   -2.08381384811509    3.82360451287207
O         0.48981822631889   -1.40652038086661    3.31663069304747
C         2.93091799777708   -3.29403174172224    1.86619674666788
C         1.85609429083331   -4.36003831119502    2.04831463927409
C         6.52945243220164   -1.32190668200909    2.87179560795221
O         6.87412258904035   -0.34906687498589    3.53974657000725
H         1.78436905275562    2.64410611638156    0.80716990693814
H         2.70022866092894    2.61126962758002    2.29917600126601
H         1.42255457981517    1.43415618454893    1.95047257850890
H         3.97157557382816    1.80266451103343    0.10668451728407
H         2.77722945791402    0.62278096571169   -0.01234764284861
H         4.14097309445366   -1.17455519117502    0.41949524061760
H         5.50190292046607    0.14583275935024   -0.73415458315808
H         6.39231447302974   -1.28602491109986    0.04453515710948
H         6.59326044553629    0.42494515555952    0.64258960877370
H         4.73759895327733   -4.73346813686828    2.24467188626653
H         3.96715569162369   -1.29742139294632    4.25554733576228
H         2.42796112173164   -1.11932829208959    2.11742711005380
H         2.06198207762825   -1.51877847396019    4.65862042541437
H         1.34805480593907   -3.10702007788421    4.08587636735022
H        -0.22106553566383   -1.35190761358439    3.97736329835975
H         3.07197345031510   -3.13318043184268    0.79008634340251
H         0.87623093737392   -3.95624619134045    1.77642104750856
H         1.88027885345271   -4.81235777930826    3.04683151879225
H         2.06733576872482   -5.12077691766269    1.29081517328127
H         7.29254730482610   -2.03190014820133    2.51554354022783
