37
 energy: -56.172302835281 gnorm: 0.116977501351 xtb: 6.4.1 (79825abcba525fcdf90b791dcacef51065a7a4e7)
C         3.03977317466349    2.11814983164503    1.65539465859127
C         4.39464534299875    1.83262788412133    2.27651291521368
O         5.19827488924989    0.94735383199538    1.49357727835421
C         4.66198658667178   -0.32656073912308    1.09343838340836
C         5.60677213866486   -0.70681138204692   -0.05450144965957
C         4.84643725865640   -1.25559785618320    2.31385846950656
O         5.29564642770309   -2.55966526602809    1.89480986897377
C         4.45843113252420   -3.59062072294141    2.45548111990547
O         4.03305245317346   -3.01035970256504    3.70338500228715
C         3.62590478184039   -1.76233267783335    3.10097138135537
C         2.55137701428740   -2.29241144328344    2.11951287599246
C         1.31031970081070   -2.32180766076308    3.01554776077944
O         0.11658345648232   -2.42083924726950    2.25002147174425
C         3.13926996658363   -3.66575690353038    1.68049681913864
C         2.19962189164939   -4.84054589076895    1.92892237920333
C         5.90368607657659   -0.76721964763944    3.31794808038754
O         5.56134506763058   -0.56118641075274    4.48058571006590
H         3.21749302308336    2.35887985901200    0.60257816055539
H         2.41051774638321    2.87507954954964    2.13557500743122
H         2.35727182595056    1.26794059225400    1.74766967164585
H         4.23029178203715    1.30750787680388    3.22094990272389
H         5.02251072812505    2.72781106129243    2.33392547498168
H         3.64645185901104   -0.21405528017132    0.69608844266537
H         5.29279321922320   -0.11121168048786   -0.91741674067722
H         5.71648951670419   -1.75337774689629   -0.35633082981497
H         6.63427632285671   -0.43774314986646    0.20576601111572
H         5.05864146711604   -4.49737861841771    2.56820416821845
H         3.21161150340405   -1.17997089524307    3.92579550799392
H         2.28520818890732   -1.72193123173880    1.22378412042089
H         1.22771331066995   -1.34597349466284    3.50761570682949
H         1.47567534469177   -3.15499959340032    3.70470622650904
H        -0.55552001176385   -2.85587667314058    2.80131560312091
H         3.35181823441813   -3.60697039338482    0.60571741736930
H         2.32476116073067   -5.16295139585621    2.96694995352482
H         2.42196504802437   -5.68192075352948    1.26193991095511
H         1.20566711537967   -4.43135864683084    1.72454201926521
H         6.93946870805571   -0.70715663478975    2.94799291058130
