37
 energy: -56.177969221804 gnorm: 0.117042933423 xtb: 6.4.1 (79825abcba525fcdf90b791dcacef51065a7a4e7)
C         2.56412335546451    2.21025759403735    2.20696530957001
C         3.44587080769813    1.56789071607883    1.15203617209628
O         4.29510237659450    0.60370508063597    1.77787209273145
C         4.77220013495495   -0.53641382013649    1.04093165201545
C         5.98126897166322   -0.18818913983019    0.16237132739170
C         5.04933961093296   -1.57277574019044    2.15255427653560
O         5.12136341067574   -2.87554135828416    1.53969482291896
C         4.30675048441242   -3.73000287825091    2.36701105528281
O         4.27777100272260   -3.13431498920890    3.67820520545231
C         3.95659480885758   -1.80634130440313    3.20961734144395
C         2.63618078423035   -2.08338493632137    2.44895459095299
C         1.39855492292980   -1.91996152557595    3.33526204035877
O         0.18689533984881   -2.32008268901846    2.70866162903298
C         2.86471030556083   -3.52041890527469    1.89475373403160
C         1.96585515563875   -4.53966186213989    2.58611915143919
C         6.48331848672665   -1.33725758141395    2.65526692054469
O         6.88777834383699   -0.94706816575857    3.74867339695630
H         2.12121085719912    3.14503988191004    1.84923851271143
H         3.26432793529724    2.33788098609401    3.03937384887465
H         1.69708569063191    1.59816932175491    2.47299567205591
H         4.04745839291589    2.35860085856452    0.69641112610940
H         2.85810917219277    1.26333236193326    0.27988680114069
H         4.02404895337579   -1.01179601358235    0.39584497622848
H         5.63755557240758    0.64063801241649   -0.46440711374337
H         6.35827822058503   -1.04038185065210   -0.41214728894183
H         6.73618413274993    0.22236557251289    0.83872156048936
H         4.59049440088318   -4.78425083365726    2.42375125837168
H         4.03460482108571   -1.05144637839193    3.99394321880918
H         2.56258668338538   -1.29930444570196    1.68841188649049
H         1.26709851896788   -0.85881970316633    3.57589503703888
H         1.43893703352158   -2.52703579590128    4.24428392182066
H         0.23693119015417   -1.81340411841592    1.88060420781345
H         2.86186715790345   -3.43991891550848    0.80054395239697
H         2.38671822933057   -4.65898207198003    3.58898671635587
H         1.99470296612971   -5.53038365410181    2.11723549289179
H         0.91253610031982   -4.24375776786608    2.59667192812280
H         7.12963427567047   -1.72615296891621    1.85254883495681
