37
 energy: -56.172953984129 gnorm: 0.120883738491 xtb: 6.4.1 (79825abcba525fcdf90b791dcacef51065a7a4e7)
C         4.31305834612391    2.76452058467452    1.16241846906405
C         3.68284298860388    1.64519141778511    1.97045316263512
O         3.19229574719755    0.43100614933007    1.39805791147838
C         4.05880691785188   -0.57402604680091    0.84160193039362
C         5.10948667356563   -0.22547105154049   -0.22120454183793
C         4.72060506591178   -1.39123593945066    1.97330348444853
O         5.05580824854012   -2.69877631770366    1.46737918104140
C         4.52291750406390   -3.53690793989518    2.51223022679461
O         4.51316778040652   -2.78771202739405    3.74248402403975
C         3.77144099536048   -1.70301991369838    3.14287810313110
C         2.49606616019636   -2.43567083983135    2.65759893609767
C         1.41190466811155   -2.43845250977098    3.73859478159241
O         0.26850404968853   -3.18255151291146    3.33885027361387
C         3.05186390571058   -3.81115885972601    2.18478549995010
C         2.49959334460521   -5.02562349002138    2.92292899669221
C         6.04552963218634   -0.89444547299249    2.57518253524603
O         6.49056706265312    0.25141724107207    2.59289207733850
H         3.87583207807491    2.97124779435537    0.18055548745366
H         5.37304262083157    2.59734638979442    0.94341097649628
H         4.27236160746074    3.66246174369865    1.78629663609069
H         2.74641330230567    2.00824760899255    2.40174654321755
H         4.47550293588272    1.46809364668765    2.70474918154945
H         3.31220328926593   -1.26785889226006    0.43782691647650
H         4.60746813823960    0.22718907710135   -1.08203016789772
H         5.66104017625465   -1.15716845067351   -0.38297206149000
H         5.77767786390963    0.52324459081264    0.21336090999708
H         5.24483580542890   -4.32171504466266    2.75322938363886
H         3.69674753806376   -0.73604792865948    3.64338294395301
H         2.04956515445361   -1.94711727615097    1.78548897169679
H         1.21930285438965   -1.37853541598436    3.94030569682836
H         1.71351469204077   -2.90477290551706    4.68096803758294
H        -0.44645437990605   -2.53243399150919    3.23355305043162
H         3.05941030017209   -4.02827748029080    1.10933864436901
H         1.52547051941831   -5.28397154319162    2.49696256896675
H         2.36515403075188   -4.92114309808604    4.00608349646239
H         3.11057783741706   -5.91009204234768    2.71905413647275
H         6.73604732740402   -1.72436634417720    2.79366986880662
