37
 energy: -56.171989523081 gnorm: 0.119607755425 xtb: 6.4.1 (79825abcba525fcdf90b791dcacef51065a7a4e7)
C         3.54721555300580    2.66569223490545    1.28162841764044
C         4.37347655922863    1.81391154077548    2.22754155485124
O         5.23639524044763    0.94204409719129    1.49423581008261
C         4.68271541500238   -0.36762434201723    1.27336974809463
C         5.22869454688635   -0.83190402666234   -0.08358540557827
C         4.89895345207875   -1.36348695218811    2.43442785606793
O         5.26622721084042   -2.64398760387102    1.88360079568088
C         4.30956089675052   -3.58304886386386    2.41379355594285
O         4.06162898454938   -3.02605357326998    3.71886059612907
C         3.60580214117451   -1.77529412036746    3.15844509665296
C         2.39957421735543   -2.19721293485560    2.28331488113555
C         1.27267653514790   -2.56160372437034    3.25351426877050
O         0.29479018470860   -3.22969951841874    2.46723806633651
C         3.00588983026692   -3.46762533871760    1.61783410966372
C         2.14410454105894   -4.72366321137287    1.68475116933483
C         5.93969805105938   -0.92967332226648    3.47996151497417
O         5.82408516619499   -0.00243647703882    4.27885999406516
H         4.31729305356687    3.14997159592696    0.67301358579775
H         2.95003461830831    3.50073069070706    1.66315674937832
H         2.87970008385324    2.10104965126919    0.62376796801356
H         3.74440763144198    1.34301547834278    2.98731357208979
H         5.02655828404587    2.46855670946731    2.81387595397856
H         3.59635038828730   -0.24007367106231    1.19990484588247
H         4.94908776727994   -0.16011058678519   -0.90117832420771
H         4.77795777647192   -1.81942082468676   -0.22531394822189
H         6.30740079735025   -1.00860240007041   -0.11633006047447
H         4.81313200345692   -4.55293244568843    2.44397273856586
H         3.23268711473431   -1.10608159773281    3.93565728148251
H         2.00227000219174   -1.48279371005354    1.55504430349227
H         0.71439328285926   -1.71040474989262    3.65970031842336
H         1.74924444888196   -3.13031089328096    4.05722183374750
H        -0.57012079234789   -3.26224235111981    2.90970367822167
H         3.32916781300616   -3.26126749356370    0.58987926721113
H         1.90929047932358   -4.78689608693062    2.75150810058407
H         2.73714038952532   -5.59375074047374    1.37902265725686
H         1.23836197694702   -4.58204713343008    1.08748496571718
H         6.84839747493412   -1.54310761968788    3.37373648063522
