37
 energy: -56.179821423703 gnorm: 0.125771000222 xtb: 6.4.1 (79825abcba525fcdf90b791dcacef51065a7a4e7)
C         3.46467769052031    2.79138777936346    1.54438706727177
C         3.42069873519829    1.38157492089496    0.98449169869159
O         4.49718020685502    0.70995880623640    1.64224411855987
C         4.67771221383059   -0.61527202884904    1.11144658393728
C         5.73089237106970   -0.71751476106449   -0.00000927006445
C         5.01447739748121   -1.58844731662974    2.26300043178934
O         5.21666968286636   -2.92051249421353    1.75045479312224
C         4.33131596985826   -3.74020387603709    2.53938172332594
O         4.20521330522585   -3.09225824700193    3.81968580865464
C         3.86600472941075   -1.80314807362425    3.26347059976507
C         2.55257476427035   -2.19664024722722    2.54310968197570
C         1.42770498896816   -2.16242908232324    3.58111906408925
O         0.10453362654271   -2.16791057635631    3.06147354355432
C         2.95503664583281   -3.55321733227127    1.89337588037636
C         1.97598830750688   -4.69442226245582    2.14615757469126
C         6.22701563566369   -1.10990911461639    3.07862073069103
O         6.20034876532389   -0.20509789650812    3.91047338588094
H         3.53690286472610    2.69474928638526    2.63223006886717
H         2.74533672539800    3.54575819428057    1.20830372441332
H         4.40111845199128    3.27113461047890    1.24422011473430
H         3.54990233354032    1.30324170100328   -0.09804914383804
H         2.45848508519500    0.89092151675499    1.16412519248675
H         3.72833373201436   -0.88466968327893    0.63399433914285
H         6.55761426743093   -0.04338344286535    0.24498549353386
H         5.34450012398977   -0.42697820083900   -0.98221575209259
H         6.05277827749718   -1.75128667424024   -0.15365432086739
H         4.76169303084459   -4.74095383927612    2.63127246913592
H         3.64731785751843   -1.11100033246923    4.07847155716112
H         2.35215889485474   -1.40353017400701    1.81548793123658
H         1.58892926741289   -1.35043640540835    4.29936805917724
H         1.61030593738774   -3.09148315188045    4.12884719349168
H         0.03751723345474   -1.39816062282111    2.47164334391402
H         3.05204123705126   -3.51381835794048    0.80121233498078
H         2.26821380065260   -5.37920254273801    2.94789731957806
H         1.90596108517208   -5.35068835237495    1.27058647006883
H         0.91636863784153   -4.44574196591416    2.25803201727558
H         7.16608639155784   -1.56643000513715    2.72782899513472
