37
 energy: -56.173310298337 gnorm: 0.126329332076 xtb: 6.4.1 (79825abcba525fcdf90b791dcacef51065a7a4e7)
C         3.77661614057013    2.61613067735848    2.40726001836606
C         3.46828056396532    1.43112066854739    1.51078374673603
O         4.63369480918193    0.80106364688859    0.97472724195814
C         4.56357032738988   -0.60173869638741    0.66199297824735
C         5.57570322450601   -0.96051376076606   -0.43429328904093
C         4.83652073373668   -1.47394696983750    1.90750812636786
O         5.14379949960485   -2.84608953841218    1.59003858090185
C         4.49089530146889   -3.51798586752061    2.68567642848237
O         4.29420053313717   -2.59659588603329    3.77529362830702
C         3.69958795394753   -1.58088548094663    2.93802956647486
C         2.44752669073462   -2.31638875302806    2.39929797735393
C         1.38659103056528   -2.20460226216297    3.49742601714172
O         0.07521582783968   -2.52635629109668    3.05288874137192
C         3.05236469016907   -3.73831336346712    2.20764111032417
C         2.34382519279359   -4.93613079600222    2.83052801435043
C         6.00571856182292   -0.84475917003427    2.68312621860149
O         5.81138453051628    0.13927340522179    3.39396198641708
H         4.27064275306683    3.36592388129330    1.78139603566832
H         4.40393801391325    2.32398509287154    3.25613950486638
H         2.83943745376537    2.99805565029428    2.82320225207650
H         2.88168405063447    1.74677398265660    0.64418588793687
H         2.73236372156728    0.78901696611608    2.00575171602157
H         3.55871777627104   -0.97427374145532    0.43102927000104
H         5.49402876059239   -0.29707641581903   -1.30096781144646
H         5.36142406526739   -1.95590937140730   -0.83642766421315
H         6.58847829888490   -1.01159846782296   -0.02492950594308
H         5.13727617046097   -4.35358279110869    2.96699184916637
H         3.64676296211048   -0.66395022208081    3.52757028325054
H         2.10882221146822   -1.75782387250342    1.52071499281581
H         1.38499927540304   -1.22540451042059    3.98974321213158
H         1.61721455225474   -2.92021393520724    4.29190911699788
H         0.06273844711960   -2.24132724570278    2.12363710107510
H         3.03968452448410   -3.76422724314128    1.11084985066874
H         1.27804573570764   -5.10240275411585    2.64729545700920
H         2.37838391268300   -4.91976517608185    3.92631613749575
H         2.92748662331130   -5.80958291208015    2.52463201526576
H         7.02268674280743   -1.20730345851572    2.46482045853298
