37
 energy: -56.173405511890 gnorm: 0.131459435775 xtb: 6.4.1 (79825abcba525fcdf90b791dcacef51065a7a4e7)
C         4.24741803956023    3.03572988082834    2.03346318244425
C         3.94889498070059    1.94363057668439    1.02292255609344
O         4.30453127965753    0.77390064014190    1.76303977359079
C         4.36295712791524   -0.45780202957229    1.02137304747457
C         5.38235008201208   -0.60064360354529   -0.11678792596455
C         4.71087806702639   -1.51264008425158    2.09506986850524
O         5.06119822095227   -2.79232456455104    1.53145140107272
C         4.44319341856111   -3.71207469624200    2.45355801249105
O         4.33449225294587   -3.04694629944952    3.72662605168110
C         3.71877395055026   -1.84102337235388    3.22375061343762
C         2.46100497017668   -2.45285632002899    2.55851997872029
C         1.20026706185098   -2.42596266681637    3.42672646688175
O         0.05856259177388   -2.83258280403624    2.68374939974083
C         2.95603269927321   -3.86200720392368    2.11843788721947
C         2.25053166016253   -5.07602895498419    2.71274618927172
C         5.96608265653836   -0.90021833128286    2.73840903508485
O         5.89033322940415   -0.01560783591064    3.58876166579646
H         3.51375914026781    3.22463407608461    2.82341108745816
H         4.47079413537387    4.00728462701863    1.57996273636840
H         5.12996520325715    2.78036729200117    2.62766766934909
H         4.49357180715367    2.08141598533889    0.08533700379375
H         2.89787183025350    1.90626723386170    0.71826146971286
H         3.33683170814444   -0.67978618599123    0.70570726060138
H         4.92446715672853   -0.65313987062814   -1.10952752950386
H         5.85195283020080   -1.58215109617091    0.00386170315932
H         6.11298898542224    0.21270259364282   -0.13994945172211
H         5.19327013753681   -4.50563859519452    2.50656793380459
H         3.68612245414469   -1.06556790564009    3.99103261712377
H         2.16342774773353   -1.79771726809504    1.73337507319937
H         1.04775078582610   -1.40126570923667    3.78441615674177
H         1.37668706954001   -3.15982140616808    4.21844484724433
H        -0.26406181931278   -2.15901971393298    2.06154999275203
H         2.90635233463484   -4.02474946133721    1.03454205192896
H         2.19606592085544   -4.90560731028316    3.79214247025159
H         2.78177629496338   -6.02757218708348    2.59208818428918
H         1.20707570765714   -5.15798684640926    2.39394500528559
H         6.94125504061490   -1.33310679213874    2.46460903435309
