37
 energy: -56.174250907573 gnorm: 0.124409218707 xtb: 6.4.1 (79825abcba525fcdf90b791dcacef51065a7a4e7)
C         3.34395049557961    2.75635696861908    1.41153821181876
C         3.94100646549673    1.68320989615081    2.30309235578990
O         4.98060926076440    0.94313551752435    1.65963704037447
C         4.69144785847287   -0.37248529545125    1.15357166992109
C         5.69094010463654   -0.53217288239711    0.00010243784185
C         4.86212272623868   -1.41199863328464    2.28354481070073
O         5.25232359432178   -2.69488967144123    1.75447368119581
C         4.44020655995045   -3.65448103399780    2.46002395909050
O         4.11969625931328   -2.97896707486016    3.69122987466051
C         3.59541153984834   -1.78339602229108    3.07318598132515
C         2.47706291164203   -2.37520722439286    2.17992787205207
C         1.23750203175730   -2.20427330980166    3.06210490510283
O         0.10840099160130   -2.78960399817249    2.42699641077711
C         3.06381847280414   -3.76571309748761    1.79698885660704
C         2.14827625296111   -4.95466244225634    2.06710885937658
C         5.99726805959090   -0.96094824086883    3.21761272785057
O         5.89651347654002   -0.29315978373521    4.24488113931840
H         4.18643060994974    3.26828375923057    0.93602155923353
H         2.90110675270041    3.54937377422761    2.02349566567397
H         2.69290089010159    2.32163108592603    0.64712579860694
H         3.17328872268868    1.08651900095579    2.80238563259192
H         4.42018191476732    2.14246124004841    3.17392135957143
H         3.66962468204070   -0.43070591450219    0.76070655472188
H         5.71998560524923    0.40188260572287   -0.56967055902613
H         5.09794283364341   -1.18841828711439   -0.64498379895153
H         6.65980337593610   -0.89603395661038    0.35338814444417
H         5.02903948454730   -4.57454107378441    2.50400259252266
H         3.30490463297035   -1.15228184175184    3.91486265904266
H         2.30178287649592   -1.83287211426704    1.24516958608401
H         1.02293228567704   -1.12975970234483    3.08633978040202
H         1.47816438711257   -2.64850649790328    4.03227456986800
H         0.01895510711842   -3.71612291284138    2.70711778997712
H         3.24564524801052   -3.65443516144771    0.72072698098355
H         1.98106436185738   -5.19301594586795    3.12178140456103
H         2.54194616253907   -5.85385778459586    1.57855437016809
H         1.17861393666168   -4.80725219249332    1.58215851587632
H         6.98855341669453   -1.19223956289065    2.79668789402020
