37
 energy: -56.181227023738 gnorm: 0.124799935688 xtb: 6.4.1 (79825abcba525fcdf90b791dcacef51065a7a4e7)
C         2.90405638771222    2.12796113107190    2.03453083961029
C         4.01454620735377    1.43271386387865    1.26874177661760
O         3.57575160616228    0.09970676378615    0.99842671574305
C         4.63030892494206   -0.85681359411374    0.78973449218518
C         5.79717333896133   -0.23847667465145    0.00802914278563
C         5.01459644834194   -1.57211972032096    2.10397110238109
O         5.27993601717066   -2.93153553089754    1.70451373861768
C         4.34009686655659   -3.68003491921295    2.50113282778585
O         4.36646880713233   -3.03282578648338    3.78773256245257
C         3.95835974230404   -1.77657632398171    3.20332924411390
C         2.55119930666085   -2.11829124727684    2.65379774550238
C         1.41069606465130   -2.08102422864667    3.67449828527319
O         0.19778958930610   -1.84864101378659    2.97043866573962
C         2.91037948079484   -3.47973895541705    1.98905653579640
C         2.07613154465785   -4.66733498830367    2.45642049870678
C         6.24139784674593   -1.02420552434482    2.85178992984373
O         6.66686287479449    0.12920196076243    2.84975592060875
H         2.99963035646018    3.19627361679263    2.25254901538862
H         2.81218273533745    1.69123487399568    3.03468461505486
H         1.93322878298855    2.01746689159211    1.54212520275162
H         4.97929656240374    1.37827281983704    1.77964027949820
H         4.18140539657049    2.01533121433298    0.35683217853902
H         4.02978223422577   -1.53225370912560    0.16924781113715
H         5.39540523802590    0.23632051502090   -0.89257877933718
H         6.37995147330083   -1.06133239825566   -0.41825502223505
H         6.43062686209079    0.33682440956634    0.68896016426259
H         4.67093635680202   -4.71375178609643    2.63206615918975
H         4.01984038778288   -0.98260248358959    3.94961660626785
H         2.29763083805498   -1.43679705869717    1.83532824855419
H         1.53398329083825   -1.14365194973639    4.22888128392643
H         1.32206067121686   -3.00598123473099    4.25163694028595
H        -0.52371566056781   -2.23772759267212    3.49288260365752
H         2.74805559458227   -3.42130905531022    0.90553433816715
H         1.01790919118027   -4.51691785852459    2.22265447429945
H         2.24121308671774   -4.80030895212821    3.53218989087840
H         2.41414563865163   -5.59698913204314    1.98882954759213
H         6.73144464310616   -1.76405319169478    3.50432325925161
