37
 energy: -56.173983779667 gnorm: 0.126219827335 xtb: 6.4.1 (79825abcba525fcdf90b791dcacef51065a7a4e7)
C         2.93684646801121    2.57403276789490    1.68360586953925
C         4.00389292430741    1.49654441022066    1.62512545369791
O         3.49226780554882    0.26728805294442    1.10581115690416
C         4.43707439068545   -0.78826266949130    0.85336757910385
C         5.58653269487820   -0.29810683563652   -0.03740118712955
C         4.93448793249917   -1.62151389082921    2.05537812365374
O         5.15974143811747   -2.97504964499604    1.61358153836830
C         4.42423115042748   -3.77249529508123    2.56292652969331
O         4.52063841140325   -3.05623086994626    3.80895417226082
C         4.00086552765381   -1.82515658390352    3.26074334400088
C         2.61620560989342   -2.25861231938852    2.71881414970424
C         1.48121721799823   -2.02756153855562    3.72000482779050
O         0.28569578170800   -1.98195173786512    2.95222086403827
C         2.94559428778242   -3.67949193946753    2.17380482866566
C         2.12669235339534   -4.91438476633089    2.53327978501745
C         6.20124731067745   -1.11080373462262    2.76176335473738
O         6.33011447094624    0.08461257950983    3.01817397611363
H         3.56707997018985    3.45835537073973    1.82048952950192
H         2.24646362529969    2.28826368553193    2.48434660274861
H         2.54873313524503    2.67695957259672    0.66578828584673
H         4.48906588550267    1.33120727198718    2.59052441794208
H         4.74608602460096    1.89317315747368    0.92462627522297
H         3.90109541361198   -1.53926594470350    0.26127310637298
H         5.21957873975700    0.32622807185769   -0.85806876785115
H         6.07461389114611   -1.19937736149722   -0.42201557160308
H         6.18348110016811    0.39797462629468    0.55843847968087
H         4.85582170905232   -4.76177245483548    2.73679171683947
H         4.15090075875143   -1.04863010125616    4.01281718624569
H         2.38008842066241   -1.50712292340808    1.95846167625138
H         1.59909416432427   -1.03024977314944    4.15895956718073
H         1.38832123899995   -2.90472150623226    4.36688302289535
H         0.31496375256295   -1.31765177277282    2.24316882469393
H         3.05443433085817   -3.64186197983198    1.08269474613236
H         1.11561507502593   -4.69452353401057    2.17762522439658
H         1.94328100735625   -5.19403109869530    3.57748855392217
H         2.53398199183254   -5.78154909019339    2.00479817603592
H         6.95824935879942   -1.90801869646714    2.83043838784424
