37
 energy: -56.180213396197 gnorm: 0.108338351331 xtb: 6.4.1 (79825abcba525fcdf90b791dcacef51065a7a4e7)
C         2.24621946848516    2.02191816509073    1.35591243059642
C         3.52836680664568    1.43053048888528    0.79972174052328
O         4.06516545236956    0.46516677966505    1.70660592732212
C         4.89319287126661   -0.53169802805803    1.08114150477705
C         6.22638215719221    0.12666512645423    0.70148321036067
C         5.13667250963587   -1.68754513535056    2.07677814349709
O         5.08945628145911   -2.97030492058950    1.42082056083883
C         4.26728812076242   -3.79899160460706    2.26667441943299
O         4.31066023437396   -3.23592751430093    3.59181277519095
C         4.03803418829264   -1.89360757552882    3.13345148713448
C         2.65934322375458   -2.05802144236286    2.44713267624031
C         1.58997843667413   -1.67614317000951    3.47406686259108
O         0.31275383030947   -1.96261668939002    2.91956330317502
C         2.79379217566904   -3.52694160165205    1.94850655715435
C         1.97047987367156   -4.56645247873713    2.70107344219955
C         6.45513155693327   -1.55455641167079    2.85681916077879
O         6.58131854212032   -0.83608150926949    3.84638672335161
H         1.69713492421829    2.59786978880038    0.60441807994885
H         2.39509137063510    2.57917832651478    2.28692071674652
H         1.53816237650123    1.27301835501467    1.72331241556174
H         4.30186216126019    2.19797100731270    0.71332541373514
H         3.40542062481366    1.00227358785435   -0.20045040680337
H         4.30535367405760   -0.99584176533593    0.28059737002656
H         6.12203743506520    1.04638829721880    0.11738901729158
H         6.92608105893190   -0.54017096849187    0.18748797601245
H         6.72159838317505    0.45642985928349    1.61904401015651
H         4.62851295917907   -4.83061359606027    2.28768618125476
H         4.09546080489303   -1.03111041918492    3.79972459599331
H         2.40082064208752   -1.51352392461272    1.53317860725177
H         1.66364081734961   -0.59882387949617    3.66158751061382
H         1.70817124651823   -2.10033482459604    4.47535731309494
H        -0.41383929894455   -1.63114557179126    3.47372498942452
H         2.58972448720377   -3.62076958114180    0.87457170577951
H         0.94134063398870   -4.36505972179446    2.38895203049047
H         1.99818718108321   -4.48245002531682    3.79395479121063
H         2.27995126961942   -5.55202617994060    2.34048564002313
H         7.35246026055749   -2.06855260526964    2.47743920971607
