37
 energy: -56.170219877709 gnorm: 0.136329463429 xtb: 6.4.1 (79825abcba525fcdf90b791dcacef51065a7a4e7)
C         3.83058506557108    2.64977252680626    0.99002155895355
C         3.12821006394914    1.31315040514199    1.14200817084839
O         3.75842902768983    0.41739321874066    2.06013775702724
C         4.59824307734949   -0.49981237558655    1.33624489326066
C         5.74463460840536    0.12330097915466    0.52847490476507
C         5.02744830676167   -1.54233375364944    2.39241214952032
O         5.21525512311808   -2.79583973686203    1.70580179855096
C         4.27650950062673   -3.70135558246810    2.31976317718277
O         4.20941321751158   -3.21853841282975    3.67523344502495
C         3.83318715561461   -1.87457989374434    3.30311476277220
C         2.52109982531079   -2.20732658026762    2.55041250581116
C         1.36145081120888   -2.32174183512843    3.54343275161584
O         0.10326477517255   -1.90115109081534    3.03263406883908
C         2.83321045558996   -3.55142256900080    1.82900839234112
C         2.01178418198833   -4.81437548379106    2.06351156254394
C         6.40777659603565   -1.31764557922464    3.03170339456259
O         6.90007313723410   -0.30051100204574    3.51590858218272
H         4.05616546746253    3.16116995791714    1.93105504379866
H         3.26887882416593    3.39043755856678    0.41090190779161
H         4.76239065545504    2.52611556405894    0.42999850632005
H         2.90859249112133    0.80656151172358    0.19868417843106
H         2.18109147856902    1.41428362311240    1.68201050922856
H         3.93313144497758   -1.09109949613218    0.69604076903901
H         5.56581381606119    0.77503103536629   -0.33246389365892
H         6.39590592321555   -0.72026756677217    0.27811950452714
H         6.26078719393388    0.71909383634705    1.28644528543037
H         4.71985060519064   -4.70064092630743    2.32656648672487
H         3.66418730191404   -1.29639427176846    4.21320236577183
H         2.22599884882685   -1.47060901898559    1.79623337215220
H         1.51687257076059   -1.65117801697390    4.39630744345399
H         1.41033696548860   -3.25773958978071    4.10735563443340
H        -0.12274064669534   -2.50309271630196    2.30359793707622
H         2.93282329699114   -3.35052953130548    0.75499598417406
H         1.79978357732255   -5.09925744676386    3.09840498687014
H         2.57976839235307   -5.68429209063256    1.71300794446910
H         1.01800249171259   -4.75505709212320    1.60960528691346
H         6.96402735460340   -2.26552875873941    2.95806492574797
