37
 energy: -56.172135722135 gnorm: 0.134167862498 xtb: 6.4.1 (79825abcba525fcdf90b791dcacef51065a7a4e7)
C         3.98777800313948    3.09823701454434    1.79946345263805
C         3.49330448946808    1.73758806349637    1.34435945813024
O         4.29223795563583    0.80226946407571    2.07196047986622
C         4.47436899322769   -0.37682137832269    1.26750559341615
C         5.59053408842059   -0.13267477352624    0.24303302919941
C         4.83267579799685   -1.50869403720293    2.25595775498461
O         4.99242021275340   -2.74365774844414    1.52978371161716
C         4.37646314938134   -3.76640015615627    2.33771051379881
O         4.32562973445757   -3.18988906734083    3.65678780317906
C         3.71783284115478   -1.95566671240656    3.21687763294068
C         2.44844291598898   -2.38467121308113    2.44005170249452
C         1.20498231447874   -2.36245169286178    3.33295588812923
O         0.02635659126754   -2.47994077240487    2.54690138608681
C         2.92403843589279   -3.74547202080939    1.85144232584480
C         2.20853665925137   -4.99902569868214    2.34281112027415
C         6.14554891487680   -1.30536342328083    3.03023488042048
O         6.47410329346222   -0.17488014018076    3.38439990371258
H         4.33479337577882    3.06086570126603    2.83683589605267
H         3.13372033705180    3.77518101814112    1.69078741719691
H         4.80040669117398    3.51342775860935    1.19578325389041
H         3.49601603066958    1.64550835442389    0.25521377775184
H         2.51342709922478    1.44030345045944    1.73207871970499
H         3.55025240815058   -0.72286866170546    0.78989168138894
H         5.33975603121066    0.55548808994507   -0.57028535328220
H         5.83592072172490   -1.08967321494936   -0.22853819292156
H         6.48900692479178    0.14809134430731    0.79964658885880
H         4.95676268648828   -4.68743181180394    2.23710264236742
H         3.56315648255397   -1.29632557181063    4.07271843143343
H         2.23247045200879   -1.65079558183604    1.65684933084879
H         1.12483870100927   -1.45088213775003    3.93613490829480
H         1.29708968758081   -3.24975945553117    3.96595812501470
H         0.11734962594443   -3.23747130558586    1.94459447973366
H         2.96047940795667   -3.71139715811218    0.75540659224390
H         2.86450988671338   -5.35773715834232    3.14164251877831
H         2.30732723710545   -5.83265947121532    1.63746801094623
H         1.14381814375762   -4.93678359923830    2.58704875655857
H         6.79265926135929   -2.14724362305524    3.32316141038949
