37
 energy: -56.169315236810 gnorm: 0.125107145346 xtb: 6.4.1 (79825abcba525fcdf90b791dcacef51065a7a4e7)
C         3.45893893573673    2.64504492841224    0.94324794127478
C         3.06421253432198    1.30563514434941    1.53752207805924
O         4.12827838474542    0.48464205597921    2.02358071707271
C         4.67697823162319   -0.62299130867405    1.28693196703108
C         5.69352319866986   -0.09045182780216    0.26810218209061
C         5.14332871706496   -1.68541025934942    2.30690273378896
O         5.30809102528243   -2.99030030975732    1.71690467054234
C         4.32133919650585   -3.82841304050667    2.35096991503202
O         4.23184753259209   -3.28014270146090    3.67999393703621
C         3.96485902692526   -1.92215200183808    3.26668865081547
C         2.64282013698668   -2.15272984564873    2.49344789899754
C         1.51827300341039   -2.24177100785931    3.52854756644413
O         0.28208549143743   -1.82906821173854    2.96077929252355
C         2.97264208617283   -3.46464112284641    1.72238547672063
C         2.03648258877963   -4.65973631215965    1.86428620151822
C         6.30292847772984   -1.31691122968701    3.24712670164758
O         6.44206886648946   -0.13150391864546    3.54178373519993
H         4.15596216293417    3.17879862760208    1.59687128462965
H         2.50240836367640    3.12639457699993    0.71340029849402
H         3.96807442585408    2.59354511467707   -0.02386494659735
H         2.44395251691053    0.73438084999722    0.84205793711295
H         2.52253793093624    1.48626084682763    2.47177420656870
H         3.91782774426574   -1.14287437076068    0.69088886912464
H         5.29190818971506    0.16755286106703   -0.71682599441134
H         6.45289461296240   -0.80071658988500   -0.07441649754299
H         6.26257757984853    0.70791375768927    0.75255156485745
H         4.63839354745338   -4.86908694654215    2.45887344417711
H         3.97874098367758   -1.20386077387592    4.08826276487771
H         2.49973960658097   -1.22084666180161    1.93690031013671
H         1.65141315914679   -1.69898912747784    4.47134580897269
H         1.40597738435089   -3.28380110949927    3.84168274002551
H        -0.36262946046000   -1.86930557812721    3.68716034851462
H         3.11075015647356   -3.19701248774617    0.66735729701770
H         1.91063518002501   -5.06421613537197    2.87307998290082
H         2.36660602993499   -5.49491092168347    1.23522687367889
H         1.03891834964150   -4.36211782141400    1.52747698021064
H         6.79411034780120   -2.17793631937881    3.72743514976002
