37
 energy: -56.176428268744 gnorm: 0.117444238387 xtb: 6.4.1 (79825abcba525fcdf90b791dcacef51065a7a4e7)
C         3.67212785975993    2.54577042604629    0.75533554562021
C         2.92922861792644    1.29100539057717    1.17563862479290
O         3.78678590909778    0.40210818555532    1.89464908339553
C         4.80085733324069   -0.39132742400843    1.25223670721318
C         6.08417542667128    0.44572773952187    1.16615857378795
C         4.97651738886729   -1.66477594195678    2.10899196664256
O         4.92346865634467   -2.88423966942007    1.34213055534838
C         4.18147436683186   -3.79357524729635    2.17921127785793
O         4.42301921812595   -3.31502527856037    3.51620790595502
C         3.96108056899812   -1.97874365526510    3.22089967573925
C         2.58370945198089   -2.11938059062562    2.52669203997442
C         1.35096821829485   -1.94316901272154    3.41734595545217
O         0.14168275791701   -2.33855096895807    2.78319633153028
C         2.67070556286418   -3.59150262298973    2.02697276303046
C         2.04319308413150   -4.68335767412007    2.88654449328557
C         6.36638361801152   -1.60903328125898    2.76446802676131
O         6.73866597212849   -0.74961123788480    3.56081775891262
H         4.42021993911625    2.85098500796991    1.49368516895261
H         2.86897932866351    3.24629269644655    0.50294864984186
H         4.16119035554586    2.35911788265362   -0.20547516517562
H         2.35821684187538    0.85885385552052    0.34985721927024
H         2.19588067452587    1.59258249749993    1.93069895498565
H         4.48663658530658   -0.59303908176629    0.22149282331716
H         6.20738720494296    1.04707097729571    2.07233169524696
H         6.00798708513732    1.05025140206769    0.25666062874377
H         6.91732032802359   -0.24201301893603    0.99650029743114
H         4.67721844796092   -4.76397259791112    2.09125902789454
H         4.07203735709319   -1.28097251637865    4.05271878132019
H         2.52244464502516   -1.46302425582011    1.65258307063955
H         1.24573592040032   -0.88099269419926    3.66617244081454
H         1.35178743985018   -2.47748997975213    4.37180448967826
H        -0.03728934180880   -1.86803527371334    1.95163766370610
H         2.26815841418960   -3.65681278117713    1.00840820875345
H         2.76432494551497   -4.93570717117584    3.66973984626899
H         1.99189677622930   -5.55103600616353    2.21817576695526
H         1.08633787130909   -4.29882214361604    3.25221121941012
H         7.02745282679497   -2.45640404244661    2.52307554097607
