37
 energy: -56.181377133792 gnorm: 0.118269138221 xtb: 6.4.1 (79825abcba525fcdf90b791dcacef51065a7a4e7)
C         4.30462621036077    2.86187528761080    2.18025249634184
C         3.72114323599325    1.56765180288581    1.64404129089358
O         4.71857815452329    0.78361212246377    0.98607155602162
C         4.39155832489405   -0.59652380640751    0.74346599139485
C         5.17760098119898   -1.16815730766042   -0.44411484299814
C         4.77690960102902   -1.38657152964778    2.01385420158099
O         5.29546494604605   -2.71408898390293    1.79756700025203
C         4.46596320536273   -3.50642090289779    2.67065797559691
O         4.19269321576571   -2.70899064958814    3.83870869218240
C         3.66263540496813   -1.62301700421215    3.04754321888686
C         2.38045079536431   -2.27880577689375    2.47763279613399
C         1.20982570973491   -2.35550710474105    3.46136023965312
O         0.01628751148764   -2.91695006471734    2.93117882405049
C         3.05284567517100   -3.62931737923321    2.09236083097705
C         2.47721093414240   -4.95533569858767    2.57723501899563
C         5.86826913602943   -0.45964560239457    2.57441372866051
O         5.73882549205598    0.18549863362939    3.61287729279820
H         4.72956374723495    3.35301848136759    1.29925061049854
H         5.09381181133163    2.60400411166910    2.89451204648455
H         3.61284342703292    3.49275431304176    2.74647396897141
H         2.92904998610914    1.66586883146208    0.89727088574812
H         3.38497789590986    1.03493935028688    2.53962733985766
H         3.31640829491756   -0.55875786829235    0.53255987056336
H         4.76518681780446   -0.78318979406041   -1.38201629661717
H         5.13494328730790   -2.26198120725248   -0.45713936397385
H         6.21010250425579   -0.83375653579086   -0.30988204036023
H         5.06127148935766   -4.37143822217237    2.97483209523565
H         3.52932592826328   -0.76710513710860    3.71144265413531
H         1.95394664184796   -1.75454158343906    1.61631708028278
H         0.85527818147117   -1.32638912019815    3.58949773283084
H         1.50955383792919   -2.89264631707052    4.36586849226786
H         0.01968293660294   -3.88870648454938    2.90701725210832
H         3.08784418451705   -3.66577600029609    0.99635478579892
H         1.47652737803388   -5.13838534284759    2.17445513316479
H         2.45818465860092   -4.97022067007035    3.67342395718662
H         3.26790117797751   -5.66966764679853    2.32885942884816
H         6.79910400858179   -0.67622541265387    2.02672797293832
