37
 energy: -56.172334269742 gnorm: 0.129138157910 xtb: 6.4.1 (79825abcba525fcdf90b791dcacef51065a7a4e7)
C         2.76866730018369    2.37683294361954    1.45412248426888
C         4.00111781618643    1.75396184339999    0.82476838683638
O         4.24738910155460    0.56495680385438    1.57851653264002
C         4.76343886933152   -0.61967660134618    0.94534125920689
C         6.01258492698512   -0.29550070654454    0.11496770532535
C         4.95485838348318   -1.61085477146426    2.11473494973639
O         5.17560638794555   -2.98386783836536    1.73514590248567
C         4.23568012201585   -3.72890240528316    2.53490400547328
O         4.32309679631539   -2.99735920969703    3.77269110572644
C         3.88027434585630   -1.74420803036714    3.20721494535026
C         2.49244538014159   -2.11304413113028    2.62691760379114
C         1.50410581978055   -2.22029244281349    3.79124089911777
O         0.16961019477682   -2.50442538661460    3.39219964372541
C         2.81413878637216   -3.50585211553960    2.00964099497928
C         1.85968726464073   -4.66710575422575    2.26517055253222
C         6.22890445075749   -1.19590814420360    2.86912887732317
O         6.63380434722678   -0.09106361258738    3.22514564302954
H         2.32279286942421    3.04988890838945    0.71510318232907
H         3.05559063082295    2.89937357972437    2.37287405315039
H         1.92650391969593    1.75284234721092    1.76808919286333
H         4.89584922569609    2.37984447919615    0.87427560041232
H         3.74096630115858    1.44409838596430   -0.19266460173770
H         3.98177575113284   -1.04038453212349    0.30201953373375
H         5.65128342220532    0.12522290248187   -0.82864102055152
H         6.46789852528563   -1.28426601812190   -0.00110436952366
H         6.74190461203306    0.33071691830290    0.63635622117211
H         4.62322491230190   -4.74900919146757    2.46887327926821
H         3.90898364623313   -0.98931389783695    3.99488852954656
H         2.07024217500414   -1.40491831978612    1.90655249824076
H         1.59710804154471   -1.29715843810367    4.37466290333929
H         1.89605358535528   -2.99054579009958    4.46174626154343
H        -0.44850443533075   -2.33079982219433    4.12205875941134
H         2.85709341798800   -3.60072767099118    0.91742444502315
H         0.83831255340340   -4.48619248532203    1.91707498711074
H         1.75054204037945   -4.96738330252041    3.31404352470864
H         2.06956734054474   -5.47577009491275    1.55865515718632
H         6.81711219681914   -2.08801902416985    3.13646738945141
