37
 energy: -56.178881773634 gnorm: 0.125093743108 xtb: 6.4.1 (79825abcba525fcdf90b791dcacef51065a7a4e7)
C         3.03332440629849    2.50738757131428    2.04423718441761
C         4.06626134323557    1.53503386766205    1.50520210426873
O         3.50792725084284    0.24710742709450    1.23682304979723
C         4.39509094240265   -0.81088740990761    0.83165385401602
C         5.56312340847389   -0.39716519992186   -0.07361418255788
C         4.95803850006216   -1.67017437021366    1.98546196080165
O         5.29753936696496   -3.02534827289891    1.63018004003049
C         4.40391956309302   -3.77218203724518    2.47978808822454
O         4.42897504626493   -3.08331601618169    3.74460024876843
C         4.01910028069989   -1.81177542562834    3.19557378221501
C         2.65369241623865   -2.18943511270073    2.56956358909402
C         1.60690942639130   -2.16332435772872    3.68649219469606
O         0.31031945197887   -2.17072812197257    3.10370269668518
C         2.94381155308782   -3.62489186313845    2.04067249708434
C         1.95963019737977   -4.70302521136434    2.48089797934288
C         6.22801723393475   -1.04087581575312    2.58180215390100
O         6.21084533969301    0.08919750791500    3.06555076967084
H         3.44059235378821    3.48910272637391    1.78284467922923
H         2.85956174284195    2.40475450432954    3.12069022513390
H         2.12240646796903    2.29951731554958    1.47485419741730
H         4.80710981177319    1.40086370194780    2.29758221934262
H         4.47129399562213    1.91237139155103    0.56051749956058
H         3.74912517148410   -1.40848126091105    0.17784573810767
H         5.20219597266590    0.11349562158411   -0.97189112775509
H         6.18934522314477   -1.25245362377986   -0.34705152991311
H         6.13361692146424    0.32356031863770    0.51883293710673
H         4.94453467113510   -4.71630095515404    2.58722918756964
H         3.97456389969775   -0.95298022536429    3.86759039740794
H         2.43276913332901   -1.48389552889299    1.76207964084317
H         1.84804159152015   -1.28916897759155    4.30205263104670
H         1.68903196607719   -2.95533307874513    4.43647135998773
H        -0.12634661926955   -1.30312641128857    3.14237912907797
H         2.99930012803010   -3.51855738210626    0.95007753005722
H         2.16912573775317   -4.99109167523085    3.51541995720613
H         1.97240198052531   -5.49916726268000    1.72710193970626
H         1.00255013379200   -4.17369230807782    2.44997775192273
H         7.11267091685921   -1.68276774439454    2.44511760377932
