37
 energy: -56.182829922111 gnorm: 0.116564449731 xtb: 6.4.1 (79825abcba525fcdf90b791dcacef51065a7a4e7)
C         4.03281403698485    2.56642161548997    1.22062848006984
C         3.47384021205691    1.31585393224535    1.87378847993489
O         3.15714930418156    0.17175165199074    1.07801487439208
C         4.19200878626430   -0.76339652236790    0.72426591942981
C         5.20845995491177   -0.38858066362924   -0.36261779572597
C         4.81848505140950   -1.36292198650649    2.00280176117449
O         5.26281140642164   -2.66683426361897    1.57810271173181
C         4.59852103970605   -3.52527361340408    2.52676021476270
O         4.66715444143627   -2.75978802819408    3.74505215465669
C         3.89420824789587   -1.67169055128073    3.19292814506634
C         2.56813842694614   -2.30046452224087    2.69791669389314
C         1.57364221709177   -2.34739436703454    3.86099054197063
O         0.24180278560743   -2.68388881769417    3.49517749685984
C         3.11491185272132   -3.65938578290083    2.16989888899760
C         2.35874380703952   -4.89809121125392    2.63744747140743
C         6.10585750547223   -0.67117172482656    2.48096283316725
O         6.16182318333154   -0.04964483683757    3.54018211080732
H         3.60614700545630    2.67951873608124    0.21906862068376
H         5.11566447817755    2.49561263584661    1.07264480646791
H         3.85547766643956    3.43764047270927    1.85836512821677
H         2.47903001849023    1.46406258521864    2.30170343621326
H         4.13077853688874    1.11741505643976    2.72696964813417
H         3.49679972989899   -1.48351652623293    0.27708944520885
H         4.59009413438055   -0.02896397208138   -1.19101631622399
H         5.89031321992322   -1.20854893735097   -0.60993982386998
H         5.82554618913459    0.46849989345010   -0.07885874256239
H         5.12649365128052   -4.48177975801701    2.56561552051988
H         3.79588852292386   -0.81739538172800    3.86496386676643
H         2.07786094213140   -1.69261361089953    1.93060399583976
H         1.73304842627133   -1.34815936203553    4.28209155700889
H         1.91049082617323   -3.07522675180889    4.60482097081692
H        -0.31204086449255   -1.92562931658602    3.24377027384098
H         3.11577553225126   -3.58709940792167    1.07511246234791
H         1.29764516647078   -4.68760659154775    2.47351976485766
H         2.40729283469269   -5.20387744486603    3.68927992995786
H         2.66373171549382   -5.75600969301106    2.03072687476811
H         6.92084802172073   -0.77524096870079    1.74728708427252
