37
 energy: -56.183100584901 gnorm: 0.135395652232 xtb: 6.4.1 (79825abcba525fcdf90b791dcacef51065a7a4e7)
C         2.73924649024894    1.88356541285004    2.15725141498745
C         4.02088757175189    1.34283114685396    1.55062809113290
O         3.64380221679835    0.23856512478671    0.72544811555719
C         4.60999786445352   -0.82109345706583    0.60643442129408
C         5.89969707866498   -0.33444641134970   -0.06797401879279
C         4.95930150627518   -1.51522284967055    1.94162301034998
O         5.18106017963522   -2.89100632972545    1.57280687599360
C         4.30526817710809   -3.63497312075729    2.44323932912795
O         4.36560070084452   -2.94450002047342    3.70598271774312
C         3.99163802259704   -1.67539545803295    3.12652746922194
C         2.56395144445950   -1.94842814928808    2.59172057141312
C         1.61147919131358   -1.96774614864341    3.79021518412906
O         0.30008318110764   -2.44402856488437    3.51774584161106
C         2.85264874627397   -3.37309111964734    2.03367014123775
C         1.82117065669293   -4.40897067223862    2.46701694225745
C         6.34167193037081   -1.10860284725788    2.47846235551096
O         6.59052881515523   -0.05262074327239    3.05668840560496
H         2.94488341192154    2.76277765159090    2.77584430594919
H         2.35422200865118    1.16657162515770    2.89015947035210
H         1.90953841080215    2.09650976370437    1.47650349828418
H         4.73292156709785    1.12092312623187    2.34968300496949
H         4.56080085171972    2.08250859224272    0.95043229844747
H         4.10116293041020   -1.49707635925101   -0.09069496216461
H         5.68153254419560    0.05898673606120   -1.06575112846811
H         6.56358100260263   -1.20277280642224   -0.12886285349039
H         6.40346114837225    0.39022903641932    0.57775732677703
H         4.78337193704996   -4.61141866345395    2.55786794600252
H         4.05882923903786   -0.87251846994203    3.86272914180922
H         2.16109336502892   -1.16496463558882    1.94170994129836
H         1.50164666198967   -1.01249971604457    4.31618863285470
H         1.87907298193945   -2.65850441289390    4.59503644471290
H        -0.16265814519670   -1.76706828203222    2.99572946844514
H         2.79797226619204   -3.43416180255360    0.93956582884902
H         1.91422674188893   -4.60850698643031    3.53875955137383
H         1.88936669308821   -5.40672018578977    2.01750724827171
H         0.82419155078111   -3.99260959975086    2.29430981328310
H         7.13503554205416   -1.87182670907457    2.44126591101860
