37
 energy: -56.171542600171 gnorm: 0.129968049365 xtb: 6.4.1 (79825abcba525fcdf90b791dcacef51065a7a4e7)
C         2.56707933274643    1.78391806563802    1.30756302851030
C         3.61670221071161    1.38314470865295    2.32769134925808
O         4.79049130270466    0.98882150270605    1.61407578794261
C         4.88481355218764   -0.38272043513002    1.18916333719244
C         6.05861361776002   -0.40038957533498    0.20080239752092
C         5.05018836846360   -1.48595978890815    2.25784067788249
O         5.28119737328794   -2.77627130514779    1.65807954868017
C         4.37480188695301   -3.65448071164988    2.35474755727017
O         4.26720506829953   -3.06908009645322    3.66648038545028
C         3.85011308784681   -1.77645809676422    3.17515004670629
C         2.60475912638435   -2.16975298460980    2.34252357761660
C         1.36075425330560   -1.98726823065570    3.21608929528139
O         0.13384297307364   -1.90284697818620    2.50306354126355
C         2.96766015459223   -3.56571757022284    1.75599423970782
C         2.00889386530929   -4.72418326635429    2.00800087768817
C         6.24036182990521   -1.14940554030176    3.17146129322349
O         6.02972386710886   -0.53727048259357    4.21659077369743
H         2.95984923510814    1.79394513218786    0.28600092580102
H         2.22031026374741    2.81250025765073    1.45333012495405
H         1.71232268454086    1.10124890306403    1.33063694649260
H         3.26365839662026    0.75409091878659    3.14889517554884
H         3.95386365031530    2.30197525616439    2.81854433141813
H         4.07119522719577   -0.70061094668447    0.52672384536971
H         5.85815313955670    0.46039491350700   -0.44480601956259
H         6.04935956185374   -1.39316326551703   -0.26045111553326
H         6.99807367918999   -0.05684066823215    0.64271941498009
H         4.76417709945766   -4.67598992101156    2.34610526219948
H         3.64282990215074   -1.09646506577254    4.00325762348653
H         2.51643713804793   -1.42731436516157    1.54276884137588
H         1.28483120012633   -0.96210631830037    3.59620208656922
H         1.38594414967484   -2.68384054283522    4.05908582414705
H         0.20266440215716   -2.25364817111733    1.59912328639323
H         3.13522731292112   -3.46364542065161    0.67651015068875
H         1.84000026297986   -4.83281493293658    3.08353818516355
H         2.55771139650994   -5.60994288749137    1.66676347897123
H         1.06718758049494   -4.61591115575967    1.46154132117340
H         7.26198420307776   -1.35703500593085    2.81579603530007
