37
 energy: -56.171524898442 gnorm: 0.124792978429 xtb: 6.4.1 (79825abcba525fcdf90b791dcacef51065a7a4e7)
C         3.40392680216440    2.86127752220012    1.45238555127954
C         3.23433536763475    1.37602319349815    1.71362794890878
O         4.50806927175363    0.79395801654096    1.42845980547026
C         4.58723609836208   -0.53890392868886    0.89200268380649
C         5.66741467321615   -0.69630992887676   -0.18661390633662
C         4.98249747520634   -1.51140060180087    2.02539399312934
O         5.29214580724982   -2.86485032056126    1.63774189800634
C         4.40274983276367   -3.64113261615205    2.46509397149880
O         4.30193715056047   -2.87662972166745    3.68176405769227
C         3.81622046657164   -1.69281677828554    3.01175728220482
C         2.47675321777536   -2.21891764773387    2.43913213568899
C         1.44705755627705   -2.18169783162362    3.57152227205707
O         0.17810976017459   -2.65550220887469    3.14010035272960
C         2.93970215212782   -3.64267185551361    2.01130833621910
C         2.16602047640239   -4.80647109408410    2.62103853963413
C         6.22646236292027   -0.97775283336163    2.75495253618953
O         6.28580700473893   -0.32529096317002    3.79521453031293
H         4.03019269138809    2.95812250273924    0.55998992400670
H         4.08708584981977    3.11207508201912    2.27084291804581
H         2.46923035509624    3.42886326941254    1.48936515972208
H         2.32532599840818    1.13731954059959    1.15555370239413
H         3.01985826917156    1.18160383585132    2.76959421227886
H         3.59490149980593   -0.70664971837255    0.45727445382351
H         5.22595713232482   -0.66486378012352   -1.18764884261067
H         6.00358602476870   -1.73120129368645   -0.06649425559225
H         6.48736037606645    0.01314465593190   -0.04425890140878
H         4.90241809557631   -4.59744217056543    2.64108395603458
H         3.67465220792163   -0.94033501341805    3.78947742672993
H         2.16958485441700   -1.60594280796519    1.58559071625908
H         1.31830546728803   -1.15240239242225    3.92533125041988
H         1.88335127792400   -2.70988752685519    4.42425558696777
H         0.03960591069420   -2.07878271523535    2.36995935070416
H         2.81737484881135   -3.66980354740933    0.92131600532087
H         1.10511326326646   -4.62572076962413    2.81829875799892
H         2.55842819836710   -5.00771979052211    3.62489554840317
H         2.32212192379131   -5.69739808802085    2.00538193324248
H         7.16062550733507   -1.39830285494226    2.35023418296924
