37
 energy: -56.176604957904 gnorm: 0.121993539930 xtb: 6.4.1 (79825abcba525fcdf90b791dcacef51065a7a4e7)
C         3.15550056426818    2.58868165256544    2.21563714962564
C         4.15775080127284    1.46183203423919    2.04624513532313
O         3.66477017742084    0.57709862067176    1.03791201930157
C         4.33853347752237   -0.63048789439460    0.63997686621071
C         5.56542245513940   -0.44457383889653   -0.26288277451352
C         4.83218763992071   -1.51115088426506    1.80929095198697
O         4.90816629346991   -2.88669705288733    1.38492980032282
C         4.43018579776674   -3.60976509608139    2.53682307506482
O         4.62023412006267   -2.72465922999086    3.65726192406610
C         3.87699109299655   -1.67240346203819    3.00412299418504
C         2.54702539127052   -2.28583688896414    2.50039203610619
C         1.41264424428635   -1.93083442586020    3.46533688352088
O         0.18127285004954   -2.55928996252589    3.13425970375801
C         2.93740233401289   -3.76916518051617    2.23248536327486
C         2.18964018996210   -4.83798597181784    3.02195152110124
C         6.21122648416541   -1.19485177280778    2.41152926902731
O         6.44759009684428   -0.25526107817194    3.16828211574686
H         3.42327964127120    3.35925211782120    2.94534489222110
H         2.16812874445444    2.20481335005900    2.49352233054922
H         3.00273292165457    3.06863028965936    1.24430308175077
H         4.35851941150597    1.01580413308222    3.02372935671523
H         5.09406912730891    1.91567802850484    1.70536999388146
H         3.60366174657410   -1.08521363893802   -0.03459208218494
H         5.38481803074617    0.40733356062200   -0.92589136125361
H         5.74042919701887   -1.34551899261844   -0.85963272568058
H         6.48464399947229   -0.13812564212335    0.24409154356894
H         4.98310030666214   -4.54843355011433    2.62823366257571
H         3.74991410952323   -0.76646235775618    3.59930462015259
H         2.28846435169608   -1.78237378114711    1.56321830069541
H         1.35214562957591   -0.83659743671212    3.45146873747432
H         1.68471037537135   -2.45689503646914    4.38497318658880
H         0.03120908611602   -2.35796799488689    2.19518772305793
H         2.97317882042273   -3.95790021432622    1.15226200119061
H         2.37505732881647   -4.70633396402123    4.09218262876508
H         2.41792925367775   -5.89318242908122    2.83048797746347
H         1.13079067791617   -4.82198537384925    2.74675464984282
H         7.01110986731238   -1.85011190083750    2.03187049792224
