37
 energy: -56.173669248018 gnorm: 0.117882063227 xtb: 6.4.1 (79825abcba525fcdf90b791dcacef51065a7a4e7)
C         2.75747549816283    1.93018440619910    1.63732187882091
C         4.10431234125919    1.70393398060780    2.29900954175702
O         5.15518617093839    1.03991438614313    1.59384215374103
C         4.99952915729724   -0.30418541271647    1.10420820948315
C         6.12078571928220   -0.33612879336291    0.05695480654928
C         4.91317017248935   -1.38498747785092    2.20464749422945
O         5.15429867749434   -2.69805919930257    1.66088071846556
C         4.36082335836381   -3.58909865110713    2.46995212011830
O         4.07910944549193   -2.86807368652884    3.68472546457795
C         3.63293965689613   -1.67303716181733    3.00718346324323
C         2.46499656840872   -2.29305711338469    2.20074772172873
C         1.14307329382744   -2.19005856845098    2.96617320074928
O         0.01165995644504   -2.53209820621289    2.17639047426885
C         2.99127040023094   -3.70059828788487    1.79295515427374
C         2.10874857754753   -4.84184299537340    2.28641107323949
C         6.05884551524054   -1.15145864946070    3.20333507263888
O         6.04650104947782   -0.54049143229425    4.27007782981024
H         2.84926387344625    2.07961357592748    0.55694986197211
H         2.21642697179257    2.73159488143372    2.15160381589464
H         2.12950896542902    1.03571631574878    1.68988990305199
H         3.81978506814691    1.23466118609771    3.24428814362976
H         4.56754406789658    2.69141922787310    2.39468260103330
H         4.02949124320278   -0.33782473399867    0.59455125599916
H         5.98384809636376    0.56346600115665   -0.55125724287511
H         6.09351667480926   -1.20754174263036   -0.60511464511630
H         7.11454596283857   -0.36586233856671    0.51243065964089
H         4.95690074064739   -4.47724541561794    2.69590771103438
H         3.35006553379873   -0.84771140370159    3.66288061967936
H         2.21228502899597   -1.81801371618463    1.24728338669695
H         1.11296243103637   -1.11355406970044    3.16973749458361
H         1.15613870230401   -2.88188062955561    3.81334628398526
H        -0.82554827808491   -2.17368479932116    2.51628466357091
H         3.15289245926913   -3.87566377848943    0.72196784827727
H         2.22255762220236   -4.94804079449574    3.36940504134084
H         2.52350808503572   -5.75614201768781    1.84567803117139
H         1.09420431492713   -4.65110121918993    1.92382431635165
H         6.99481767760006   -1.47639810063038    2.72199255522721
