37
 energy: -56.175759241519 gnorm: 0.125910047166 xtb: 6.4.1 (79825abcba525fcdf90b791dcacef51065a7a4e7)
C         3.52799817888963    2.46624602988853    1.26042210102713
C         3.22115608166411    1.15635213048590    1.96257248023595
O         3.20635329152556    0.07034980131449    1.03364912333542
C         4.34917033764548   -0.75936901630480    0.75776791019242
C         5.35417178866484    0.05885561313504   -0.06409378987536
C         4.97450840450774   -1.58658904853066    1.90285152092801
O         5.23544950693368   -2.96789267363966    1.58364559779162
C         4.48582194235241   -3.69353762133914    2.57845652870301
O         4.52301313476480   -2.92386374630585    3.79547457165335
C         4.05504686718385   -1.73183719955083    3.12740037250069
C         2.65940840406320   -2.20113566437245    2.64697716948235
C         1.69766709942882   -2.18275579615674    3.83806144275369
O         0.31891601710439   -2.35775734975997    3.53929082465297
C         3.03216974271173   -3.61144188862530    2.10244405056765
C         2.28280871669375   -4.76851700378467    2.75391789357814
C         6.31407325626088   -1.01366050500410    2.39458636334502
O         6.34194466335213    0.12688787341239    2.85256659751128
H         2.91266241493391    2.50684103836424    0.35617002860573
H         4.49789052108567    2.42583949027788    0.75331825155424
H         3.28720220957260    3.31866933151382    1.90273848255246
H         2.18425325945483    1.25144196461177    2.29501013421196
H         3.93941966434678    0.89008443167216    2.74491703035282
H         3.95623856425508   -1.55032473104839    0.10826892912842
H         4.75718310822253    0.65003879200637   -0.76555763347422
H         6.07140113558773   -0.60320925392951   -0.55976728066805
H         5.93525154825984    0.66960296355410    0.63249482250965
H         5.01134348638922   -4.64814975052004    2.66627228765192
H         3.94068747157593   -0.95599894703272    3.88642338925633
H         2.32760972432953   -1.49038302430798    1.88319457964043
H         1.84258819658843   -1.13817012279718    4.13646661671371
H         1.97519017922913   -2.82996592740397    4.67507438088567
H         0.02506772444277   -1.54536263688440    3.09367454977304
H         3.01352060609822   -3.70572197076343    1.00949077583307
H         1.30314102954247   -4.95732261528121    2.30479646623559
H         2.07459348360628   -4.63430911064484    3.82202294998729
H         2.87417132034027   -5.67556488721207    2.59673634562866
H         7.21460059682569   -1.64715904897798    2.36218037073593
