37
 energy: -56.177755625355 gnorm: 0.121384661259 xtb: 6.4.1 (79825abcba525fcdf90b791dcacef51065a7a4e7)
C         3.97082875911706    2.48669608413176    1.19305327367010
C         3.31642050131200    1.30870005099927    1.89095329384417
O         3.08464811408065    0.14213232034539    1.09853920420832
C         4.18974887815297   -0.70661996073043    0.73944805043006
C         5.27746558394234   -0.01660764898265   -0.09465716952021
C         4.81565400504036   -1.44474448414089    1.94359595418713
O         5.14845263872602   -2.73647855549342    1.39710662612417
C         4.49086499127448   -3.63189188273226    2.31578193866553
O         4.67506365822709   -2.93670291085575    3.56385931011208
C         3.90221281660100   -1.79611391928100    3.13026826654598
C         2.52913314728938   -2.27181073814398    2.59434010984378
C         1.51343249393131   -2.09819992271097    3.72667282562422
O         0.26380692185396   -2.67431973467135    3.36978927378301
C         2.96392272207056   -3.72303683145319    2.23471274568126
C         2.56808567011805   -4.79438294434153    3.24481842245034
C         6.15040951609193   -0.84177976733982    2.41193937362742
O         6.25433303048160   -0.05073960968940    3.34726214481720
H         3.44206936206293    2.78104498157407    0.28106089729403
H         4.95580627811310    2.09080945181529    0.92366281042212
H         4.00880694314041    3.28361869612360    1.94181927712224
H         2.30558395718022    1.54183517743985    2.23531042049871
H         3.90205845041189    0.96078683214719    2.74818642799655
H         3.77370297962473   -1.48381811998729    0.08773945780633
H         6.11750641425302    0.29488654527792    0.53402982107748
H         4.84255332119873    0.86790048006672   -0.57103593965390
H         5.62943006179707   -0.63810336178630   -0.92276694053277
H         5.07673335517314   -4.55044756972444    2.22532459179737
H         3.89325221224134   -1.03218223588864    3.90965720203857
H         2.21964718736674   -1.64537222171595    1.75147787167582
H         1.39056560364683   -1.01837540394534    3.86841109605361
H         1.99291895176047   -2.59086043102968    4.57747776123515
H        -0.06115537761797   -2.26295122139422    2.55120433409549
H         2.59920958801013   -3.92834706627667    1.22050594907312
H         1.48571209509591   -4.91734788697858    3.34706059179691
H         3.16334802739421   -4.58627114312961    4.14179443138611
H         2.91135718557054   -5.79229415855259    2.95587291450118
H         7.09054765316553   -1.24203622234831    2.00053311873479
