37
 energy: -56.177126163329 gnorm: 0.127474824700 xtb: 6.4.1 (79825abcba525fcdf90b791dcacef51065a7a4e7)
C         3.28699338811814    2.86998243092853    1.61719278471715
C         3.77045634869815    1.74213832717547    0.72432073005703
O         4.02812620377222    0.58807520214294    1.52698089819392
C         4.58479019362674   -0.59449698233586    0.92513140008890
C         5.84883591527575   -0.30021200005040    0.10625357525740
C         4.90237553484019   -1.57331752157869    2.07734972603460
O         5.10272972841500   -2.89455633904415    1.53682351920375
C         4.35610423370574   -3.70631045330465    2.46513192216888
O         4.40480310275004   -3.00264123313159    3.72107460501383
C         3.79866382367401   -1.84010809157261    3.11497666611801
C         2.42939627769472   -2.22943680843733    2.50474415011667
C         1.38290822593573   -2.06244369292954    3.60970656919941
O         0.17100858351806   -2.61470860821224    3.11256806439635
C         2.86898204115931   -3.66725410047195    2.09992721069596
C         2.18782108202380   -4.85097889051847    2.77786400355141
C         6.21056676509075   -1.22954955456137    2.80874806584984
O         6.34458808947686   -0.49167664103557    3.78289135143550
H         3.17395085139500    3.68776758407649    0.89857835556947
H         4.02339123030173    2.90111885889429    2.42727111519997
H         2.29940949382027    2.75930459684626    2.07502134186162
H         4.69459528075529    2.09622756891845    0.26030308328205
H         3.02351738760136    1.49469182792023   -0.03707041675338
H         3.83170822727596   -0.99931442350430    0.23894948473080
H         5.50368491490740    0.04190473309334   -0.87444591453310
H         6.44293277247858   -1.21265444060954   -0.00749067327735
H         6.49568145411074    0.39114100070901    0.65354105370430
H         4.74758778694857   -4.72232883984871    2.36707030079399
H         3.79233292219338   -1.03773431226813    3.85475720292423
H         2.07822629543348   -1.55532316184862    1.71678860519380
H         1.20092637230662   -1.00523362293588    3.83419814384455
H         1.69202595519413   -2.70901537388285    4.43607329360067
H        -0.51894040318836   -2.52549560342348    3.79147695965011
H         2.67110851514608   -3.75920683798402    1.02467182571651
H         1.09628243827933   -4.78580037631743    2.74042685078486
H         2.57334402890605   -5.07622186537435    3.77928869384843
H         2.57121239349342   -5.68351737629220    2.18033375200694
H         7.02798149740426   -1.79391155925610    2.33267167967495
