37
 energy: -56.179148611885 gnorm: 0.118202215087 xtb: 6.4.1 (79825abcba525fcdf90b791dcacef51065a7a4e7)
C         3.82277645952610    2.97956747969349    1.73390922159258
C         3.60111607337599    1.72684976573573    0.90653127098086
O         4.31822670006181    0.78878262898004    1.71170280942427
C         4.56940466121686   -0.47176269485466    1.06477953471442
C         5.63376230777792   -0.52199051056634   -0.03957372180917
C         4.84673859044922   -1.51494771526376    2.16995288017741
O         5.13409992959493   -2.84619146080166    1.69751669688593
C         4.38267331655792   -3.67583535703190    2.60592184613558
O         4.34149073918050   -2.89610030403476    3.81638920100476
C         3.71469135098625   -1.75983685401188    3.18214101260800
C         2.45058681386405   -2.32036314070180    2.48449911353556
C         1.28369355140255   -2.45930633790742    3.46583534737155
O         0.10978936698710   -2.70202988482484    2.70171610206778
C         2.97147427686130   -3.70924188054048    2.01108272629203
C         2.18916587609235   -4.95083190253674    2.42488305899589
C         6.06309136691133   -1.01219226439466    2.96506743542726
O         6.24843899216529   -0.08737856948841    3.75357183484642
H         3.59868379696810    3.95103547562829    1.28225638855382
H         4.88441392356805    2.87399456619883    1.98141359939861
H         3.25371433232530    2.87617584495591    2.66270251775242
H         4.09727474908981    1.91209529522606   -0.04962509762035
H         2.56690628111247    1.40562310378643    0.74501470464472
H         3.65534086312844   -0.85280736047946    0.59451620734029
H         5.29826316534562    0.13243834438165   -0.85019555986053
H         5.74948302046750   -1.55538534700670   -0.38183658701853
H         6.55148525615347   -0.10484702360794    0.38431024411185
H         4.86382059495484   -4.62151675739570    2.86927104755084
H         3.49637169126567   -0.91249174474714    3.83441534777321
H         2.05792538018782   -1.75069185205568    1.63602098050113
H         1.23892712360515   -1.48167854034902    3.95923868760217
H         1.38238680261408   -3.24109280493893    4.22449220923845
H        -0.59109911595834   -3.06680841410914    3.26792967666053
H         3.17033147755990   -3.66713170600508    0.93290559203393
H         1.12060640060644   -4.89550863333451    2.19635215531655
H         2.40922524197076   -5.06848310634408    3.49256551370075
H         2.57479813863561   -5.86876575304732    1.97119061615163
H         6.93537771975321   -1.50363767255980    2.50580934522169
