37
 energy: -56.178181965578 gnorm: 0.122785916596 xtb: 6.4.1 (79825abcba525fcdf90b791dcacef51065a7a4e7)
C         2.64990343446257    2.04995787262124    1.84580212340189
C         3.53574887976181    1.38745773658235    0.80687927315108
O         4.30583509981521    0.54521380112151    1.66717641798013
C         4.83731129208075   -0.64348773861538    1.05472534853725
C         6.05780970347940   -0.47796518957762    0.13932267215305
C         5.14791385454223   -1.63288189589012    2.19979410871749
O         5.34172165267851   -2.97379108477251    1.70746954766985
C         4.34643841514753   -3.68643387400279    2.46885144246474
O         4.27609763936363   -3.05786222338896    3.76301674325345
C         3.99457020426239   -1.75341410083662    3.21038643707754
C         2.62775143580174   -2.05650355602736    2.54796856631591
C         1.50224433929972   -2.05912473610272    3.58584755353561
O         0.27021885182356   -1.84094726443639    2.91104702024952
C         2.94484404043895   -3.43778974031536    1.90304087935692
C         1.89992637538648   -4.52004389483752    2.15134702084457
C         6.38994175851761   -1.09814917551325    2.93185413231714
O         6.18207390309381   -0.22867477190207    3.77576084209022
H         1.88315427244975    2.66339710826451    1.36232937593709
H         3.32696410890049    2.67695981991282    2.43566275392623
H         2.10154869107413    1.25842068304076    2.36537355726252
H         4.28808410840369    2.00990232346841    0.31567790929116
H         3.05115050521834    0.79163843081133    0.02647691862963
H         3.99721750660529   -0.97621216993410    0.43392575721786
H         5.68494934968020   -0.24882138952654   -0.86387862417671
H         6.56061349346833   -1.44621396578018    0.22944869806939
H         6.73791991199366    0.30790741822651    0.47955209209235
H         4.54148788375706   -4.76165359434655    2.50089937772989
H         3.97010637256155   -1.02745733146365    4.02494600793062
H         2.34919190307136   -1.35286602189189    1.75681604014405
H         1.64666875840557   -1.33845186355673    4.39885382012631
H         1.44170350979761   -3.05338439672910    4.03781348778637
H        -0.45793527238712   -1.98171594238761    3.53944307613805
H         2.96374764244698   -3.31483842096202    0.81294500902006
H         0.95124099954363   -4.00110697420416    1.98459294379620
H         1.73420272097844   -4.92075913540088    3.15841043174665
H         2.02776791287129   -5.33842393515307    1.43646082254924
H         7.40210520996767   -1.41710038355360    2.63670108658064
