37
 energy: -56.181524265077 gnorm: 0.123047911422 xtb: 6.4.1 (79825abcba525fcdf90b791dcacef51065a7a4e7)
C         3.44203608279613    2.88356428349663    1.49131090370023
C         3.29734204730375    1.40617714902701    1.17606473432687
O         4.32795273365538    0.56334819431237    1.69567974653465
C         4.64242930945947   -0.68918499792915    1.06098322327755
C         5.79813762896094   -0.48403170803962    0.07243552981764
C         4.99549016129653   -1.67071805301538    2.20049982294727
O         5.33308715397263   -3.01897940408517    1.81813614312129
C         4.35221323902945   -3.77251074830923    2.55856017476739
O         4.26976317696228   -3.11623355289192    3.83817582488553
C         3.88155617230752   -1.85798686413032    3.24458214910239
C         2.53027723709081   -2.26211769180115    2.60459954409507
C         1.32487933650620   -2.14913098410117    3.54173123852360
O         0.12789232927174   -2.00096672921199    2.78932613776844
C         2.94676658222755   -3.62091997729570    1.96849894800887
C         2.00494924028354   -4.78303735390337    2.26387370890288
C         6.26529341350958   -1.17434099968914    2.91162131887788
O         6.36361806773377   -0.38363269245270    3.84782959187413
H         3.49024155530250    3.18543853049325    2.54226572542859
H         2.77100629194023    3.57440205113079    0.96983189541649
H         4.38846171827533    3.21087221307204    1.05048604615357
H         3.18705265254938    1.21510289254994    0.10552692041769
H         2.36472842507493    1.06637336321064    1.63826520899839
H         3.80376502018591   -1.05244643766597    0.45555893541496
H         6.56854983763352    0.04477346636794    0.64232558925267
H         5.50812616066268    0.09371779527195   -0.81104559294446
H         6.16999063418964   -1.40634144060924   -0.38250600978527
H         4.76174759049388   -4.77343754457549    2.71854763978303
H         3.86403600255009   -0.99827256015276    3.91667096433062
H         2.36766477745723   -1.52066523857981    1.81565785832629
H         1.41543104921480   -1.31483514144932    4.24668360175483
H         1.21543615260130   -3.04317901019778    4.16236880921778
H         0.27596300563800   -1.19680059221589    2.26368581124290
H         2.90742834582484   -3.46155542995394    0.88367691660067
H         2.13923963150808   -5.08180877403590    3.30781246546093
H         2.07119201947491   -5.61872831924173    1.55715858714127
H         0.96896688724937   -4.44081746457926    2.18154664127939
H         7.13771924684884   -1.61278226341405    2.40175616669686
