37
 energy: -56.178198112167 gnorm: 0.122883603575 xtb: 6.4.1 (79825abcba525fcdf90b791dcacef51065a7a4e7)
C         3.93980080752759    2.57866569351259    0.36552533398029
C         3.17408547268487    1.77499508311665    1.40031170413678
O         3.98612819209897    0.84959901242457    2.12608544728499
C         4.52722867534502   -0.27864285877966    1.41555387258943
C         5.69398250651414   -0.05965674263206    0.44307935020692
C         4.83549994819019   -1.42786142437957    2.40085721750594
O         5.10433744871458   -2.65649910662309    1.69647220732514
C         4.33242293538149   -3.64349290623105    2.40931306887900
O         4.35164253035971   -3.14744956177075    3.76152813605577
C         3.74678394123563   -1.89143403442064    3.38362082527806
C         2.41586200611960   -2.26445511077835    2.68479589321891
C         1.25768879358435   -2.40353136573597    3.67638981643561
O         0.02278610294727   -2.54421275911996    2.98641295672071
C         2.87217236100630   -3.56140026726493    1.95394357915455
C         2.20222714914460   -4.87422332705697    2.34439456257555
C         6.14339492728579   -1.19538505971535    3.17535687754155
O         7.23713682357709   -1.17751446869343    2.61430196765000
H         3.50085486940158    3.57824427225954    0.44380046775197
H         3.95878508483703    2.25299780554175   -0.67996889389877
H         4.95817481035290    2.76506747244010    0.71956951957292
H         2.42984005082384    1.10401570985595    0.96372291897464
H         2.70385352774440    2.39114042679036    2.17368799860530
H         3.71681277146715   -0.66366783121187    0.78560381149674
H         6.55704598233883    0.38180572724494    0.95119044171206
H         5.37255908349709    0.59042114090849   -0.37699732948559
H         5.96940126616860   -1.05470128072399    0.08261772428747
H         4.83057586304740   -4.61602625257565    2.44382935375560
H         3.46211288882405   -1.28659007875026    4.24631728465023
H         2.13960745338678   -1.41129129585992    2.05676846351730
H         1.12042694146185   -1.51540338731917    4.30376121839144
H         1.42410665038151   -3.32192922046793    4.24677666316419
H         0.03390080362676   -1.93173430237083    2.23165971418005
H         2.83190085897191   -3.39182459098642    0.87070506089393
H         2.35127671060654   -5.13075841757051    3.39752341099209
H         2.74161430785107   -5.69170036233700    1.85143762044362
H         1.12235963515394   -5.00618344371328    2.22767133987580
H         6.05428443863773   -1.08046536461603    4.26722354964656
