37
 energy: -56.166560933374 gnorm: 0.133329812687 xtb: 6.4.1 (79825abcba525fcdf90b791dcacef51065a7a4e7)
C         3.19326469262247    2.01278109972037    2.55461893602537
C         4.03719889638435    1.53733900904464    1.38640699444041
O         3.52577751754448    0.25694640543185    1.01016007160625
C         4.35934789403837   -0.87068136153555    0.68737434121998
C         5.45380086205384   -0.60699204823314   -0.35551432669050
C         4.87818561405799   -1.50986997874582    1.99458607783877
O         5.29530052330051   -2.87608934591721    1.80108621398790
C         4.46024490553617   -3.56078237869788    2.75608801040322
O         4.24748479086866   -2.68611335902221    3.88063290283323
C         3.76242191358304   -1.60962005233482    3.04869599439409
C         2.46671427906821   -2.27455894091457    2.52157911641056
C         1.35472466821751   -2.10446559558844    3.56009404113881
O         0.16625972342212   -1.68642683685105    2.90158159423783
C         3.04236168615698   -3.68263761075123    2.18935105141606
C         2.48654689803053   -4.92153110299606    2.88288963370182
C         6.22451148783170   -0.89984942547920    2.41857406874197
O         6.47034209273031    0.26350285410914    2.73090735805060
H         2.21841243523783    1.56944085797774    2.32863137890997
H         3.04827137691133    3.09605907588069    2.62507405569939
H         3.58659655162019    1.49195136139856    3.43280169179832
H         5.06255417308391    1.33799372650005    1.70832678313365
H         3.96470745870549    2.23277103030090    0.54380189480737
H         3.68338468980786   -1.60765839729789    0.23815964417953
H         5.10009044912108    0.10951305002030   -1.10348086887035
H         5.83811823038430   -1.56565612495571   -0.71842393351685
H         6.21513606910104   -0.02466783791217    0.17095402775895
H         5.00035670359229   -4.45542692079584    3.07711636768887
H         3.65211286302003   -0.61381488905928    3.48150426989104
H         2.05212168511418   -1.80253974588590    1.62495523904454
H         1.59689322605988   -1.39378736503717    4.35852865633020
H         1.10720546267852   -3.09404424472816    3.95501050394222
H         0.58335174169030   -1.15887429707259    2.19970666242651
H         3.05827629250091   -3.84803235857683    1.10483517614151
H         1.43569052249938   -5.01902139224925    2.59426719203274
H         2.40868476921207   -4.77901146558327    3.96725091744063
H         2.95322846739679   -5.85955626556362    2.56750299130230
H         6.96554370036019   -1.70883942780647    2.51719700696034
