37
 energy: -56.173679769151 gnorm: 0.128157536142 xtb: 6.4.1 (79825abcba525fcdf90b791dcacef51065a7a4e7)
C         2.78249856011005    2.24743966031544    1.71363187290348
C         3.42091504038379    1.20003865479749    0.82011925546547
O         4.33282492733262    0.47505197923405    1.64796796317599
C         4.89378592390530   -0.68550825086602    1.00843899828907
C         6.10539989016591   -0.28433464016383    0.15636656338509
C         5.12847263552594   -1.73018482927784    2.12205030926369
O         5.17421711342641   -3.07395498539758    1.60226999516374
C         4.20390048584604   -3.75312699198118    2.42407403498537
O         4.36336991140974   -3.09286411545237    3.69432456335322
C         4.01349703349706   -1.78927134634132    3.18005059700596
C         2.59957846053485   -1.99833314268419    2.58340864872839
C         1.48565435431476   -1.88020236106393    3.62704847030767
O         0.23211779479998   -1.86497987000005    2.95678110878547
C         2.76889609580277   -3.43044799273909    1.99620378839878
C         1.82008414120848   -4.48633219512561    2.55266343956382
C         6.40595781763911   -1.36711794269823    2.89709759639559
O         6.36046565656398   -0.39969127893305    3.65432241212786
H         2.42862952045080    1.58116846507101    2.50661186497706
H         1.94037443488650    2.80798479830553    1.29399599976669
H         3.61952056231234    2.85316437472016    2.07372944178097
H         4.02244461062375    1.63502982508729    0.01782928580575
H         2.76467883574293    0.43731326940944    0.38829974055814
H         4.13141909066629   -0.99661538220744    0.28465422649567
H         7.02157635612428    0.06691714078452    0.64132781380728
H         5.77580618451945    0.57977081834176   -0.42940624209610
H         6.40021289305906   -1.14117899333754   -0.45584642974364
H         4.44399748344735   -4.81632168497580    2.50856832566248
H         4.04808801543333   -0.96590958909304    3.89559086841636
H         2.43178167645002   -1.34799321951624    1.71881294579945
H         1.69157494091554   -1.09807195330080    4.36669414481588
H         1.51455420405508   -2.85942525832553    4.11364685447707
H         0.05749558867958   -0.91083583364621    3.02020110869007
H         2.66716957966377   -3.35760070820600    0.90619077774719
H         1.99852222046592   -4.92248165193366    3.54010452058615
H         1.71110949558396   -5.30104213477611    1.82700099005661
H         0.80502190642637   -4.08358290188717    2.62043726759626
H         7.29784245621998   -1.94253467754871    2.60255148002129
