37
 energy: -56.171925718150 gnorm: 0.129245678926 xtb: 6.4.1 (79825abcba525fcdf90b791dcacef51065a7a4e7)
C         3.12220144312743    2.50905108706685    2.04669928677758
C         3.17659482866514    1.28499791847259    1.15130860773393
O         4.34724979331732    0.58472860736450    1.57758158656889
C         4.74332801570753   -0.61818368777465    0.89442811714172
C         6.05673029279943   -0.34750162140166    0.14831697811393
C         5.04849440225112   -1.64121398066623    2.01104788808692
O         5.15117287470040   -3.00825221148082    1.56535068638184
C         4.37858090949263   -3.78587555666631    2.50159554884035
O         4.34413573925880   -2.99577540882125    3.70553460745018
C         3.88502920638342   -1.82146290330218    3.00093955544832
C         2.57666938489508   -2.26459475055617    2.30045191025814
C         1.40189705705753   -1.88244379716706    3.20479504592140
O         0.15538002538039   -1.96113038542765    2.52593742136719
C         2.91773871096132   -3.76158950989413    2.04139716986547
C         2.11917575596714   -4.72091858371795    2.91704998872353
C         6.28282707409412   -1.12601712973227    2.76965142754899
O         6.21384415075309   -0.17171258054067    3.54160835190998
H         2.23243021870607    3.14561868806069    2.01434613112621
H         4.01487835337887    3.09867941305689    1.81229678570985
H         3.26816801227332    2.06186714433518    3.03457519178833
H         3.25818100535678    1.58250338698501    0.10271024379268
H         2.31902322604512    0.63104532629015    1.34046731642074
H         4.01138001474852   -1.00114925438053    0.17370296779479
H         5.80407750734936    0.19649985465488   -0.76720119771667
H         6.55249588976991   -1.23515721440234   -0.25754513766971
H         6.81748236029837    0.26250395467058    0.64334343961545
H         4.87612560375496   -4.72824473014527    2.74564150162429
H         3.88372077549176   -1.09816045497502    3.81822216465650
H         2.41432891630720   -1.58318350986258    1.45905556708107
H         1.65839073662483   -0.91605515069843    3.65369477618210
H         1.35407930668387   -2.47677416572808    4.12184223237608
H        -0.51148338205970   -1.98106988762760    3.23290380258000
H         2.71777161700135   -4.01535305430040    0.99287411487890
H         1.07719210575342   -4.57304320840298    2.61786887535561
H         2.17421440398256   -4.49811453203884    3.98921735055239
H         2.53640826761485   -5.72560092361471    2.80007967700324
H         7.07567269690468   -1.89048248311712    2.75208460388868
