37
 energy: -56.178853253250 gnorm: 0.125825997773 xtb: 6.4.1 (79825abcba525fcdf90b791dcacef51065a7a4e7)
C         3.03622981742163    2.50765060901897    1.83155292855473
C         4.14397937464114    1.49938816978553    2.07504223188179
O         3.60784456753485    0.35235227406527    1.41217955801251
C         4.41551295662846   -0.67790648453523    0.81484107663793
C         5.54287909392303   -0.27000247354609   -0.14309214384137
C         4.96816717599632   -1.57321513781753    1.94601433570776
O         5.10258118301728   -2.90860529811715    1.42004056708301
C         4.33686093169795   -3.71809688846789    2.33466984927580
O         4.53341048388949   -3.09986694187062    3.62077792532348
C         4.01358776129550   -1.84864894820594    3.12029743760385
C         2.56421340103906   -2.17600301840534    2.68325341979091
C         1.38030300110988   -2.01467092408498    3.64048588707192
O         0.18331107637669   -2.32426111514033    2.93891036524516
C         2.81525709413382   -3.62878697292312    2.18242728873764
C         2.11752675751898   -4.78249796846955    2.89440077491626
C         6.31926010807701   -1.08389602435108    2.49337067780785
O         6.59782623578737    0.06352574239372    2.83571189493640
H         3.24710168858792    3.47769074316094    2.29254431893354
H         2.12223181664027    2.05241604080172    2.22759245199427
H         2.89137700702106    2.53956173086973    0.74749671915745
H         4.39592073815264    1.24657710119632    3.10816199714453
H         5.06539587077818    1.64982604482448    1.50300713574171
H         3.68781046233076   -1.27051908435675    0.24817129403292
H         5.11274784330407    0.37531534454889   -0.91542405797863
H         5.95237682176299   -1.20872561209557   -0.52980976982650
H         6.37398946677968    0.19727378194472    0.39245445563630
H         4.75950445437053   -4.72607505254993    2.31183805792890
H         3.96320666559987   -1.05854951049195    3.87151221093474
H         2.36506154858233   -1.53145149244536    1.82098003498399
H         1.39438611489873   -0.99151568036235    4.03312058274164
H         1.43412579969886   -2.70103232397952    4.49048694682390
H         0.04685865694237   -2.04469349526686    2.01797142418187
H         2.57598845022649   -3.60580106114202    1.11191080232111
H         2.78400193289672   -4.97160544651347    3.74125117287419
H         2.13464273877075   -5.60388275429154    2.16828244364598
H         1.11007345211737   -4.42201249294066    3.12296080857130
H         7.03156221864247   -1.91596568564998    2.61001473773210
