37
 energy: -56.175943771340 gnorm: 0.123076846978 xtb: 6.4.1 (79825abcba525fcdf90b791dcacef51065a7a4e7)
C         3.26562535023699    2.84882732589469    1.53906732175478
C         3.22427927129358    1.42351412423356    1.01968110793233
O         4.15301071912170    0.62276499027276    1.75369576610991
C         4.62730163318868   -0.55116569688665    1.06994914437423
C         5.80841374061643   -0.30187911440619    0.12242262289355
C         4.99708751062668   -1.65003531507240    2.09088065140791
O         5.16320323684347   -2.96477549493110    1.52356575333934
C         4.40538830788830   -3.79726899776487    2.42402227680582
O         4.48618772018889   -3.11349421660470    3.68926433705924
C         3.96663979497588   -1.85203342153795    3.21489163438380
C         2.60340006272816   -2.24397381893495    2.59294763704907
C         1.36915148114852   -2.03877931851508    3.47526929948292
O         0.16152748078589   -2.17004840139799    2.73685433496454
C         2.89866734230216   -3.71073864334023    2.16184541883447
C         2.15542231301669   -4.90425427510590    2.75166757065940
C         6.29613302451206   -1.16093919934873    2.75250743678173
O         6.35095270773428   -0.31129081016014    3.63933646212520
H         3.66125283688031    3.56585951369679    0.81291196570077
H         4.04214028913584    2.84274721339260    2.31137926782470
H         2.31657467691859    3.15548615862993    1.98900253732171
H         3.63418588287101    1.45501495016781    0.00690837777719
H         2.22039168033732    0.99573336523869    0.92980683490358
H         3.86643033323144   -1.01398778408520    0.43063246238377
H         5.70988696355054    0.35367414614373   -0.74848893769918
H         5.97266367739356   -1.31936645519071   -0.24660516609269
H         6.67245092062835    0.09914840755701    0.65956169391372
H         4.99109382252248   -4.71943363077688    2.46561847864369
H         3.94495688148872   -1.08868605269309    3.99460288587203
H         2.38942609485625   -1.68464879411291    1.67643568233075
H         1.46565238446052   -1.00229892191823    3.81820217014475
H         1.46851005085961   -2.66135457429226    4.36914769538104
H        -0.60832420471901   -1.97893282787780    3.29873427771082
H         2.61823749784315   -3.76781372424799    1.10265473227520
H         1.10439389094851   -4.71158343457679    2.51645789260992
H         2.34844243818043   -4.85877667949937    3.83004077533694
H         2.40060814747737   -5.83762675722036    2.23605983321370
H         7.17869960490937   -1.73978900198732    2.43734210946472
