37
 energy: -56.176543157955 gnorm: 0.121958254057 xtb: 6.4.1 (79825abcba525fcdf90b791dcacef51065a7a4e7)
C         4.12079196325049    3.07253953800992    1.64422865434974
C         4.90280907966338    1.95705516154198    2.31290877263008
O         5.31805331102255    0.93091424764976    1.40895863141842
C         4.38744521730071   -0.15539105896192    1.25248517283397
C         4.46997163795619   -0.63176535998794   -0.20396017518534
C         4.65371282411440   -1.28665232966356    2.27028018569619
O         5.05107045418688   -2.52288223054962    1.64432096765567
C         4.50908253833141   -3.55410334886410    2.49342812026811
O         4.18133359630756   -2.99330869850418    3.77912013526953
C         3.53307740271652   -1.86610112491695    3.15030391525997
C         2.42995763995442   -2.54442668922527    2.30068316402827
C         1.07651167084447   -2.73733038142467    2.98984066563040
O         0.01039402344281   -3.08841029067195    2.11749897166667
C         3.13562191279123   -3.87148440888246    1.89400551659174
C         2.46468272445899   -5.15064510692382    2.38223848812182
C         5.80297162417000   -0.76753370253648    3.15016900751684
O         5.60011721101151    0.02381957970036    4.06885468849431
H         4.79533662825823    3.75544054881008    1.11830701160305
H         3.46121120135530    3.52227067386175    2.39401081287276
H         3.43068178683857    2.64085808768459    0.91308052222119
H         4.22956978908947    1.52375649839793    3.05703609001171
H         5.83973460576630    2.26913461796710    2.78581577849918
H         3.32236757232842    0.09282791037553    1.32898483692772
H         4.62677490337977    0.26956486676146   -0.80476057738619
H         3.57134582763634   -1.18089421148481   -0.50290698365683
H         5.23371467299305   -1.41295649252601   -0.25232031424734
H         5.24390156121534   -4.32835388288946    2.72953385578177
H         3.09977448704007   -1.18322652112364    3.88314077493228
H         2.38116169647624   -1.91582788493149    1.40563790208547
H         0.80090257360334   -1.77311877683393    3.43204266110920
H         1.07260861639637   -3.45136862710172    3.81846894278519
H         0.43728987382201   -3.54438765706772    1.37268327118682
H         3.18866521249622   -3.94043922141139    0.80028936534021
H         2.45787875619931   -5.13282738269159    3.47619581095792
H         3.04363689710847   -6.01845218015964    2.04469338144088
H         1.42126528814415   -5.21259537379578    2.05882877539999
H         6.74845414917457   -1.25364730070750    2.86193920896665
