37
 energy: -56.177245299059 gnorm: 0.124365140390 xtb: 6.4.1 (79825abcba525fcdf90b791dcacef51065a7a4e7)
C         2.22143352730507    1.90529648299746    1.79525497532386
C         3.15983075488359    1.11472520382302    0.90228411354649
O         4.25875452464034    0.60720199682145    1.66209036955205
C         4.87039785711105   -0.54475698656562    1.05426019369654
C         6.20999423741185   -0.05170551600890    0.49091490312770
C         5.07317859140049   -1.61287260770854    2.15178748399166
O         5.06669889800818   -2.84642799553247    1.40594466920552
C         4.35632628163513   -3.77094943008226    2.25375462319954
O         4.42083163461009   -3.23803211058348    3.59044911210753
C         4.00898933409633   -1.90302617041693    3.22385955354488
C         2.62843243975732   -2.17431938076522    2.57631278371696
C         1.45257684893381   -2.05346753883618    3.54931037705440
O         0.72204649514282   -0.85831782091207    3.30685107922343
C         2.89417275938010   -3.53310895590502    1.86391969314376
C         1.90591752460607   -4.62293348368789    2.26444061084459
C         6.45008706998842   -1.44013325236034    2.81418342179912
O         6.71567643046930   -0.49200578092069    3.55031512126266
H         1.52861347250695    2.43663060822826    1.13522293944771
H         2.82617992410079    2.61066060390313    2.37510100047307
H         1.84229903023065    1.17552281860456    2.51696541067389
H         3.54028283319142    1.81853984809326    0.15755228293741
H         2.61954190468234    0.34744383242735    0.33816416488792
H         4.24335230019699   -0.97858167825042    0.26656403743757
H         6.00946930406799    0.81835728133455   -0.14211356538844
H         6.77710379357910   -0.85587430136465    0.01118649142637
H         6.81063871273540    0.29140696535459    1.33791062295030
H         4.73865426404429   -4.79065285802699    2.15784298979657
H         4.15941677701829   -1.21377175960697    4.05657735095222
H         2.57197804057421   -1.37936351421510    1.82565868035348
H         1.90417643656747   -2.17413617863504    4.54062459517497
H         0.74510973184340   -2.86279102745840    3.34688401703793
H        -0.22421252503906   -0.93957198755079    3.51396813987387
H         2.80211552018200   -3.35214614530541    0.78569833363117
H         2.05745529072962   -4.96251449219511    3.29343401815621
H         2.07424969184159   -5.53056418091532    1.67276118122004
H         0.87263279292684   -4.30462322366700    2.09665245094981
H         7.18179569659918   -2.25990447889543    2.73738727403972
