37
 energy: -56.177152097222 gnorm: 0.122555554679 xtb: 6.4.1 (79825abcba525fcdf90b791dcacef51065a7a4e7)
C         4.52099618736207    3.06831892125330    1.75921727521573
C         3.86045170102808    1.70457449900070    1.67632336385080
O         4.80170203945629    0.86448694051911    1.00489242783785
C         4.42645047699961   -0.50163420127432    0.75295216146105
C         5.31536383956948   -1.05575842732229   -0.36854484349281
C         4.62382946315229   -1.36936308325753    2.01574483742960
O         5.24261433889828   -2.65661686103497    1.82064128397055
C         4.50532216362888   -3.55696288922269    2.67148095153163
O         4.16544244144494   -2.72935973881965    3.80040467494336
C         3.51764143092232   -1.68937562190859    3.03553229785710
C         2.32938939420563   -2.49864276345278    2.45933961895334
C         1.34140911698726   -2.61883292836842    3.62270336131325
O         0.09431944219844   -2.98147125745803    3.04468540223875
C         3.13626939517126   -3.75330196911836    2.01301471926247
C         2.42917088093005   -5.05209870544820    2.38439277803774
C         5.64072468921631   -0.52109919205151    2.79731811658665
O         5.33605912222791    0.17625159301517    3.76285118308849
H         4.89492479475527    3.35250811018802    0.77059612869502
H         5.40731399871473    2.87871517522117    2.37400936898805
H         3.94608630065627    3.84507255525004    2.27235559453568
H         2.95197379070046    1.81076279872081    1.07789519878661
H         3.74382643507134    1.31187317066862    2.69172883884737
H         3.36161455937525   -0.45684883011858    0.49609813999363
H         5.10493748807279   -0.56686880638534   -1.32491937987906
H         5.13135739287555   -2.11896488174292   -0.55340614959990
H         6.39190114374719   -0.92295864347910   -0.22950038969436
H         5.04334864190432   -4.47815257891776    2.91044931272190
H         3.37750847567134   -0.88686633853884    3.76179714032627
H         1.79120133454516   -1.95510863871548    1.67604670693195
H         1.23473096176421   -1.62982673700956    4.08280500493272
H         1.55989371873285   -3.35318280873467    4.40339882258042
H        -0.62170008924749   -3.10843829166766    3.68974451220911
H         3.04925194804707   -3.69108225483759    0.92107147217180
H         1.35509771873845   -4.88376198758117    2.26136438800876
H         2.78155987699249   -5.43938725949621    3.34774283070771
H         2.82949204519306   -5.77582004896057    1.66806742367135
H         6.67362495243595   -0.57264999261136    2.41813527381055
