37
 energy: -56.177701290525 gnorm: 0.114894509032 xtb: 6.4.1 (79825abcba525fcdf90b791dcacef51065a7a4e7)
C         3.01952406767721    2.04444397728866    2.15853741681002
C         4.22291063696522    1.50819325142762    1.40535404617332
O         3.68350349414641    0.42166855415151    0.64969352962750
C         4.44257249418515   -0.79358351047217    0.51721236171924
C         5.68007695928683   -0.61271983820515   -0.37208352392534
C         4.84941040751176   -1.43959639802501    1.86023412320178
O         5.24273881262242   -2.82198184751810    1.74939348146934
C         4.37939296713885   -3.52875046800505    2.66222584968312
O         4.35322778437319   -2.60408196421513    3.76640768191001
C         3.83376139486334   -1.48557478555441    3.01451724820654
C         2.48453361447623   -2.05993010346122    2.51596474721118
C         1.54007156240909   -1.86886350087980    3.70569198447585
O         0.33335245969949   -2.57150039999570    3.43928182265879
C         2.94145679844087   -3.49888152065473    2.13508286641223
C         2.07689531534720   -4.66502814482758    2.60136435745287
C         6.14298658321874   -0.91838297190708    2.50790806273254
O         6.28378397061758   -0.38043505576271    3.60433929509291
H         2.32793913894878    1.19841751637455    2.09602834401489
H         2.56989839440030    2.82073342030891    1.53029413953215
H         3.09770759260654    2.32915639685006    3.21210501985572
H         4.94866969517641    1.15147336841799    2.14071045612547
H         4.66310735409328    2.22669482242740    0.70617852832435
H         3.69763778316066   -1.41654016960213    0.00843684798846
H         5.36868806363368   -0.39568883019639   -1.39866964293277
H         6.35531209518939   -1.47371298147509   -0.33761100232452
H         6.23834143358797    0.22275435167229    0.05945485025177
H         4.89063456539190   -4.42587900401676    3.02133758017847
H         3.72984688869635   -0.54349878417386    3.55563978879698
H         1.98735407171731   -1.62340002850633    1.64368181169609
H         1.36894475463347   -0.78745663672994    3.75550977627779
H         2.02163501087025   -2.24103419003661    4.61457938152672
H        -0.03453559922241   -2.99312865848168    4.23413642634778
H         3.18419001059235   -3.60359889256167    1.07023628222271
H         1.09535849821702   -4.48725759418820    2.15182069717938
H         2.06363914971238   -4.77450587718524    3.69225970233562
H         2.47842789886372   -5.60810469091850    2.21857219154422
H         7.02967782179569   -1.27593541610194    1.96086605436968
