37
 energy: -56.176613444995 gnorm: 0.129291465055 xtb: 6.4.1 (79825abcba525fcdf90b791dcacef51065a7a4e7)
C         2.68123879858329    2.50404559357345    1.28738064586851
C         3.56562435039867    1.43623529314086    0.67042633565366
O         4.34370094657188    0.62931187876921    1.55698723048668
C         4.92031935759078   -0.54576670116819    0.95926142333899
C         6.31763542116757   -0.31689477917314    0.36756757090379
C         5.03163909346125   -1.63037746525352    2.05369489278185
O         5.07406613205502   -2.96600319525771    1.51305983406471
C         4.18142447378449   -3.74233472839183    2.33686265215846
O         4.27567431970587   -3.05915952851878    3.60149800999893
C         3.88790940606893   -1.77232777820020    3.07239944969735
C         2.45096737776229   -2.12695160161998    2.61600733661777
C         1.61817324540631   -2.07220657904217    3.89952703384407
O         0.22446877969137   -2.20966922059722    3.65552732886623
C         2.73266824371995   -3.48606949676247    1.91040536677025
C         1.80035659683725   -4.54525169142780    2.48808261548983
C         6.26934129076341   -1.50467547868477    2.95745181854731
O         6.56426021654293   -0.43518535513324    3.48715647693070
H         1.68212446692265    2.13037590946096    1.53253241046047
H         2.73762519682058    3.45128091022957    0.74053149965229
H         3.23160530238517    2.73395917720336    2.20466739299796
H         4.33822294267048    1.90907156738767    0.05867343507297
H         3.00455276401318    0.73638245525256    0.04251810716003
H         4.25283741296506   -0.89624155111103    0.16334027263480
H         6.92923733334432    0.15158818248748    1.14500656018612
H         6.26164711452357    0.25623211343667   -0.56346997652302
H         6.66658864194062   -1.32513649846188    0.12760506856245
H         4.56598383407440   -4.76523972979440    2.36765668864280
H         4.03948307155383   -1.02248045333853    3.85077817105749
H         2.08034143610860   -1.32661044014676    1.96738267109825
H         1.81585830525504   -1.17204467033558    4.49268481197307
H         1.86575340867020   -2.95545092010594    4.49540803803878
H        -0.17499089153340   -1.34358542838370    3.46781294967180
H         2.63307330408204   -3.45725790567182    0.81814435390624
H         1.80141774389009   -4.72465968554264    3.56739630293814
H         1.94452450925560   -5.52736280619957    2.02237119879933
H         0.78281022890490   -4.27876660533546    2.18685725516549
H         6.75091504832243   -2.48407624352949    3.10638441665050
