37
 energy: -56.176145706952 gnorm: 0.128971210972 xtb: 6.4.1 (79825abcba525fcdf90b791dcacef51065a7a4e7)
C         3.68448865542802    2.65680328975195    0.77690397339838
C         2.99796619180985    1.36968963261420    1.19525143899132
O         3.86125731175162    0.56356565711195    1.99987021769754
C         4.66674978685330   -0.41387144549977    1.31695501605883
C         5.98944253508387    0.02825490644423    0.67665483695643
C         4.93578984948878   -1.60402494892668    2.26443023729859
O         5.14938993078162   -2.86256605063059    1.59477980032218
C         4.28546006254001   -3.74219341167744    2.34179503126596
O         4.38696261181220   -3.24221310235156    3.68887739585891
C         3.88910473763638   -1.93118652661104    3.34305993713076
C         2.51434977658745   -2.20123561557471    2.68277477559885
C         1.36800396217166   -2.29295703717459    3.69344007054286
O         0.15525901879940   -1.95122545143184    3.03517477908452
C         2.87508536884533   -3.44743884945524    1.82179957811555
C         2.05420086266213   -4.72586697960056    1.95045828745524
C         6.29853541816849   -1.40331569102180    2.94789538549396
O         6.49506601745152   -0.42805382921644    3.67012342817600
H         3.99373868402516    3.14849722755103    1.70456736059521
H         3.07496095642152    3.35192437757041    0.18974060909647
H         4.62050759933622    2.39300301418514    0.27544961760596
H         2.50578395110502    0.77658867254794    0.42019516576829
H         2.22549283841752    1.50108171089481    1.96002925360363
H         3.99737293233212   -0.78014208967048    0.52978559622289
H         5.88393176952593    0.50995004527898   -0.30047454465348
H         6.54711654072372   -0.90023055063595    0.51742387533619
H         6.60337957953880    0.67932705703381    1.30521514934378
H         4.62729701202947   -4.78016426954875    2.31125301648924
H         3.86858505968774   -1.28891011020408    4.22520445805569
H         2.36436541575604   -1.28041061100350    2.10987904146528
H         1.46552330115800   -1.54267668734085    4.48639427421961
H         1.38377589800500   -3.25902492703381    4.20623120316561
H        -0.10303859802647   -2.49666341638009    2.27314747077679
H         3.04018348689910   -3.13372201618351    0.78347990681070
H         1.92671091045436   -5.04703693166555    2.98858282873801
H         2.59191672150108   -5.57900379976999    1.52007128610017
H         1.00083937449678   -4.73764626588889    1.65475159745205
H         7.02213305808616   -2.21154955619548    2.75688613221781
