37
 energy: -56.179177852898 gnorm: 0.118587401434 xtb: 6.4.1 (79825abcba525fcdf90b791dcacef51065a7a4e7)
C         3.28491468802745    2.76801558402620    1.73774831357279
C         3.65017945399247    1.30243930173467    1.88491175661771
O         4.71574138825595    0.90274245358853    1.02042404362348
C         4.66818488279251   -0.51218150936155    0.76293003490376
C         5.82158037332906   -0.82539882806382   -0.19964459565054
C         4.81681805787683   -1.42873330703158    1.99759525292439
O         5.11297457876976   -2.76178809035790    1.53581751596926
C         4.42246371371751   -3.65041691347859    2.43675282220229
O         4.39211243017357   -2.89606521009243    3.66351534372857
C         3.75106050453994   -1.75175947906119    3.05865198225664
C         2.44230130891759   -2.34305413962520    2.47867422385338
C         1.37268918686297   -2.19986012353995    3.56467204895214
O         0.08611063968051   -2.26500573327056    2.96357666164945
C         2.95349883972793   -3.73758126081499    2.01133905064524
C         2.16729310120295   -4.80552741632684    2.76377142729775
C         6.04428549551819   -0.89370585853316    2.75360690705447
O         6.03427979856867   -0.13666349651684    3.72219354087116
H         2.72768048848708    2.84528604811338    0.79887814561640
H         4.16369842038920    3.41842632310240    1.67307078235055
H         2.73793864360194    3.22336500492211    2.56880344531396
H         2.80797104859286    0.61282073131098    1.78573732469450
H         3.98394718127400    1.26019090797462    2.92687060556518
H         3.66979475274967   -0.67927844687576    0.34203691707862
H         5.48656600354639   -0.50942245507372   -1.19255389326364
H         6.07581828168325   -1.88549444204252   -0.29964667961437
H         6.70436743878050   -0.23892338687864    0.06986471677966
H         5.10893873396992   -4.49947743909120    2.49168084919207
H         3.68354464148407   -0.91286196542325    3.75349843231057
H         2.05674125181754   -1.79092564132616    1.61547026067728
H         1.32614989972705   -1.17781884529493    3.95770222132889
H         1.47638164490531   -2.89975478880669    4.39886986780883
H        -0.04646096857215   -3.13869914277063    2.55861932136583
H         2.94995065804529   -3.80437176732611    0.91620900294759
H         1.10660356343901   -4.74310480871801    2.50272063568611
H         2.46012073707338   -4.61550566630838    3.80317388338403
H         2.45242065412280   -5.80420906497731    2.41954929998523
H         7.02747399500770   -1.27952944143562    2.44087603377062
