37
 energy: -56.177407482318 gnorm: 0.131862220431 xtb: 6.4.1 (79825abcba525fcdf90b791dcacef51065a7a4e7)
C         3.61842564030945    2.78259550471989    1.70983593013918
C         3.21407447002736    1.33943565595567    1.47155237907176
O         4.51613833480813    0.81686487225431    1.19939751988846
C         4.60800039623597   -0.57087129859062    0.83017636442467
C         5.73824758259194   -0.73677072407866   -0.19451617938793
C         4.87523823599905   -1.45489294459342    2.06858131761002
O         5.02875675314925   -2.80030598294377    1.57433622449513
C         4.38890737832105   -3.66012180637034    2.53842148277065
O         4.39242576692938   -2.89498033607945    3.75885588017719
C         3.84002967399060   -1.69182752669593    3.18133989069694
C         2.51537036324305   -2.21452499569748    2.57230849141830
C         1.44122887444553   -2.12959184851898    3.65995378809198
O         0.14092751571862   -2.42973157316221    3.17007984120369
C         2.94628470303243   -3.60749619721925    2.02607135574430
C         2.17606767463146   -4.83642173910614    2.49648676346066
C         6.17258703033138   -1.00455790615554    2.76036792903028
O         6.00327425764133   -0.15817785488460    3.63578057873976
H         4.02477121785396    3.20886146714256    0.78726426841970
H         4.43437623825254    2.99899977953228    2.40759804729569
H         2.69873121076755    3.31745084817671    1.96531673020682
H         2.55053729659453    1.25039314092852    0.60754185551838
H         2.82407314484620    0.80721485794378    2.34533956727938
H         3.64089311863034   -0.85276821747101    0.39763402803500
H         5.26610187767456   -0.67210199130966   -1.17982879497701
H         6.16724812679006   -1.74059003817319   -0.11238608052251
H         6.48186605326367    0.04845417375121   -0.03217352393704
H         4.95035229994969   -4.59485772110364    2.61727057055858
H         3.80838910617877   -0.89446728298804    3.92587632836846
H         2.18519952891674   -1.61333860956930    1.71897054432815
H         1.50061619994309   -1.15609386415598    4.15993559513252
H         1.77258213536643   -2.87031040785924    4.39346022967815
H         0.18443202742491   -3.40011275991943    3.13301823303963
H         2.98867618337787   -3.53239464990262    0.93229528459942
H         1.23494263860315   -4.81432222391033    1.93890119264061
H         2.00530335678940   -4.70296363771904    3.57130871758144
H         2.70585754639780   -5.76578032890135    2.26677623543538
H         7.15549311737777   -1.28134369992580    2.34732400035601
