37
 energy: -56.181363381206 gnorm: 0.113416467857 xtb: 6.4.1 (79825abcba525fcdf90b791dcacef51065a7a4e7)
C         2.85471068803788    2.29471515374373    2.12001732643661
C         3.95653906093322    1.61963951617665    1.32425582249893
O         3.58858082534263    0.28528204307872    0.96842489368497
C         4.57047081117331   -0.74509650874557    0.75679634534753
C         5.88203827353254   -0.43653042583365    0.02225303241076
C         4.95913326601498   -1.54105581071391    2.02247696854491
O         5.18060065643826   -2.91956073023282    1.66378661727999
C         4.40537072880462   -3.71515374000127    2.58259082808900
O         4.39385582654164   -2.97378485663489    3.81756190329806
C         3.93943623812491   -1.77634828735348    3.14981093591993
C         2.60628033132269   -2.22521022980422    2.50168092437035
C         1.52907164729534   -2.12556557121163    3.58503603649119
O         0.24063408350316   -1.98368183500642    3.00139091778822
C         2.97830542264187   -3.66122384347096    2.02850737239926
C         2.03054956298891   -4.75446301730140    2.50951659204763
C         6.12539605303161   -1.02345103224485    2.88061486723197
O         6.59887749272428    0.11011009570282    2.83341535015217
H         3.15190298116830    3.31755450511825    2.37187893255256
H         2.69332974055555    1.78572618123325    3.07624144897553
H         1.93625612355824    2.45883056084153    1.54845292697662
H         4.93052003217461    1.54663018974979    1.81492377032766
H         4.17885108393385    2.19910021872134    0.42222105982224
H         3.96698078022801   -1.39540302957980    0.11278046598759
H         5.77033440533125   -0.10258773705428   -1.01406211275905
H         6.33914481246857   -1.43093281411464   -0.00338952310100
H         6.49785866537048    0.30414517113956    0.54000452583788
H         4.80772787989598   -4.73032929301461    2.63451512460248
H         3.74276778820275   -0.91414257002648    3.78937472196947
H         2.28919069541630   -1.68884318835060    1.60146534866861
H         1.72025430543886   -1.17760282730816    4.10081004484473
H         1.60855977807184   -2.95898309960277    4.28901581976456
H        -0.42674032892879   -1.93518992407369    3.70649075537257
H         2.88639160062829   -3.63895138453392    0.93542038091384
H         0.99240158458264   -4.41870651964980    2.42813636843863
H         2.30889222959956   -5.08262775958778    3.51800408030759
H         2.06617622848470   -5.64194692244709    1.87056848269727
H         6.52619226730483   -1.77968385365932    3.57400823295432
