37
 energy: -56.174836460240 gnorm: 0.116649896719 xtb: 6.4.1 (79825abcba525fcdf90b791dcacef51065a7a4e7)
C         3.18558576254073    2.21054824688029    0.42523740474358
C         3.40526549312734    1.53913990453891    1.76834607904058
O         4.67814498995704    0.91983444437767    1.96521489640189
C         4.80246823653040   -0.39587154191135    1.39597323795507
C         5.93953334630770   -0.29476584023749    0.37038233561913
C         5.05752471553348   -1.52405606700387    2.42003526385302
O         5.25044967423219   -2.71286188766026    1.62788435569928
C         4.39694629301628   -3.73076859896941    2.18783860327110
O         4.35304882186350   -3.33924705455122    3.57337022069557
C         3.90437629046212   -1.98883910272408    3.32571283873456
C         2.61740845849325   -2.18967270973163    2.48771888512476
C         1.45821458993923   -2.23782069898498    3.48667696128582
O         0.13212395987378   -2.24992349902546    2.97464070253260
C         2.97653991634965   -3.46972755505234    1.67721585790123
C         1.85813695828642   -4.49817017371868    1.80474440063441
C         6.15252919040890   -1.15500322816957    3.43455457767488
O         5.95895197812903   -0.34506721063976    4.33893547561094
H         4.11966287082946    2.63164245192520    0.04035106640764
H         2.47318791484822    3.03159089259724    0.55886539399526
H         2.74120355732568    1.50337478145985   -0.28159260585819
H         2.65651041531262    0.83913014366583    2.14792018497644
H         3.51528568735571    2.32831616784598    2.51931907889200
H         3.93060277638569   -0.69007256529199    0.80002725969577
H         5.71053100673577    0.49115195844738   -0.35614068689286
H         6.21190758613720   -1.17222266322357   -0.22486704442936
H         6.80387956545854    0.06365229397300    0.93637152563662
H         4.90540536336462   -4.69143222296255    2.07052029285609
H         3.82504399813537   -1.40279419565019    4.24297875520237
H         2.39902440403866   -1.40207477425958    1.75928123316653
H         1.56552349305419   -1.30477177222668    4.05157650753794
H         1.52520550804811   -3.11301022939056    4.13939908782664
H        -0.32483087803068   -3.10779196649758    2.96199873565434
H         3.03325572075684   -3.14097212802036    0.63199503437151
H         1.79311042015078   -5.05970367405719    2.74152509350959
H         1.97065909808677   -5.24230796712400    1.00736653247002
H         0.84987413293369   -4.14499104129099    1.56847717418772
H         7.04986358374223   -1.78333582960045    3.31918922055092
