37
 energy: -56.179410794023 gnorm: 0.120493076709 xtb: 6.4.1 (79825abcba525fcdf90b791dcacef51065a7a4e7)
C         3.80974235397293    3.05680791618191    2.08646437034927
C         3.98484255106707    1.93526862849840    1.07925098177368
O         4.39722683469524    0.73706115256450    1.74012680135255
C         4.45530725222613   -0.50427440935664    1.01467019506223
C         5.53709103571698   -0.51516838461689   -0.07372370817009
C         4.82500687802280   -1.49282826088782    2.14278394608452
O         5.12698037725492   -2.78750013194393    1.58545180687008
C         4.34396774810094   -3.65635962644880    2.42814110481145
O         4.15110801879432   -3.00025676644294    3.69591400447368
C         3.67560866773737   -1.75952354075665    3.12958876918225
C         2.37337238244679   -2.28665936714911    2.47754380474283
C         1.36899577454200   -2.51619803102410    3.61002139325088
O         0.08020710943148   -2.93379967662488    3.17935145153571
C         2.95063818594813   -3.56341971985217    1.79851647026481
C         2.18259506648482   -4.87697586379916    1.89579402951383
C         6.06457154547350   -0.98253217635332    2.89615075901728
O         5.98155763097058   -0.46641991843208    4.00885472463561
H         2.93669554839561    2.93172116073072    2.73461593204186
H         3.99122736556988    4.01099155849113    1.58042590600869
H         4.69840417668851    3.09674134646869    2.72353893896335
H         4.78707322185327    2.27564596353154    0.41948317682247
H         3.10720306899367    1.69389282565147    0.47068650511630
H         3.41828916207540   -0.65236527549238    0.69137806496740
H         5.22982746454174   -0.09092954201046   -1.03474142719881
H         5.75364112017815   -1.57356676099983   -0.25075188538279
H         6.36439332490716    0.07668876198796    0.32774577710450
H         4.83323088658172   -4.62053716864406    2.58985706131978
H         3.48437381448854   -0.99903236249711    3.88866806428136
H         1.80152559503301   -1.67717766851017    1.77033322981731
H         1.20147933168147   -1.55064469836874    4.10078812915450
H         1.78479838016164   -3.16598852909011    4.38550263769644
H         0.08599915190392   -3.90378649477692    3.11612269715230
H         3.11928606994333   -3.28113125968273    0.75178131471659
H         2.09931520658620   -5.07679419927674    2.96828807851644
H         2.87962276891403   -5.66043941017708    1.57555817610868
H         1.22901470008397   -4.81176490569433    1.36326831617575
H         7.04082914468854   -1.21462469937828    2.44186650248885
