37
 energy: -56.170333745454 gnorm: 0.136807864018 xtb: 6.4.1 (79825abcba525fcdf90b791dcacef51065a7a4e7)
C         4.02947138388565    3.21883654704036    1.86566340096989
C         3.59785347911167    1.95069635902909    1.15256050700869
O         4.10168811775832    0.84765385051203    1.90884533618457
C         4.47237413681589   -0.35528748039673    1.21163747909613
C         5.62139649743704   -0.20224507723295    0.20600236831470
C         4.79628305568801   -1.46316293717344    2.23840549606901
O         5.14914998211172   -2.72367055433093    1.63459420964044
C         4.35546269189094   -3.72775752548547    2.29793481673658
O         4.20517913004289   -3.22266536585701    3.63853571454608
C         3.69189612281738   -1.94822531157622    3.19290576956756
C         2.40527992328341   -2.41623010867513    2.46872024540973
C         1.20456489696325   -2.54926813326100    3.40922560081311
O        -0.03974039262698   -2.58637497712804    2.72280631211925
C         2.88887340803220   -3.76405588428365    1.85721872543834
C         2.24213105284710   -5.06131690907200    2.33010471804434
C         6.12760634075578   -1.18835230426003    2.95711407662831
O         6.49630097414957   -0.23874201039352    3.64535676632076
H         4.42456369635288    2.94146372946208    2.84796898442387
H         3.20153470580521    3.92324063880438    1.99913211932345
H         4.89062980509475    3.68670580236187    1.37916256896454
H         3.89220766714064    1.94103717658565    0.09995105042374
H         2.53179200496879    1.72431239028045    1.25804657447925
H         3.67082913697980   -0.72660826941457    0.56240573867894
H         5.47847048242555    0.31821271776564   -0.74617432355122
H         6.03103173655179   -1.19060893734267   -0.02589401444818
H         6.54343788289473    0.18084682528484    0.65207639263990
H         4.93552020329743   -4.64141209705519    2.14321746709147
H         3.64348041774955   -1.32955748967845    4.09069482373116
H         2.04428131207464   -1.71152858736112    1.71261220897901
H         1.11829123827810   -1.64761717540866    4.02630698370504
H         1.32486774319782   -3.39660899154906    4.09042410370613
H         0.02329989831704   -3.38929797194593    2.17852105289577
H         2.76934702531431   -3.71945267008317    0.76749058323864
H         2.68985052155189   -5.42339204254969    3.26045695450767
H         2.32965971276306   -5.83592115080760    1.55904001847801
H         1.15824090664013   -4.96682993902160    2.44588903939660
H         6.85893936537743   -2.00402959705120    2.84247235026136
