37
 energy: -56.182330783610 gnorm: 0.122264446008 xtb: 6.4.1 (79825abcba525fcdf90b791dcacef51065a7a4e7)
C         3.13842703519906    2.23955432976593    0.80065016935670
C         3.56425540263843    1.47620084624007    2.04119477650150
O         4.84877662679294    0.88117804385884    1.84505224837617
C         4.87058213298966   -0.40659915518152    1.20339112347120
C         6.06452131667086   -0.57488154100381    0.25409327658960
C         4.96338351732835   -1.43172745156496    2.35537074808874
O         5.26763629045074   -2.72806735416265    1.80317921952721
C         4.26586658140712   -3.58425543484838    2.38760224948218
O         4.14345869912837   -3.03237114838792    3.71249998763616
C         3.72158758020677   -1.74693504632445    3.20661301398814
C         2.41324018496243   -2.12930399235895    2.47117080996810
C         1.28658803143270   -2.44852647569441    3.45743537782202
O        -0.00061958186752   -2.49653254273750    2.85607364025349
C         2.91441824758163   -3.38275006914312    1.69520403947651
C         2.12231598675609   -4.68538616322820    1.67293001218776
C         6.20226977508947   -1.02024325454794    3.16797509520117
O         6.13088917334495   -0.27379948116576    4.14219262452575
H         3.77892226666742    3.11113259286524    0.63309403605137
H         2.12497324954739    2.65152397527651    0.85232796665795
H         3.28064251420418    1.60864303351175   -0.08190533207877
H         2.83099767661374    0.67405852632908    2.15792156053651
H         3.69260907309290    2.05401453895729    2.96234662846062
H         3.95321233859107   -0.62218830471993    0.64320435445832
H         5.90069809480466    0.13793392032900   -0.56015523229898
H         6.14470020707881   -1.59480788656091   -0.13547267577366
H         6.93737517943226   -0.39309315777810    0.88732374986069
H         4.60150489221866   -4.62303293988053    2.44639878442035
H         3.49005670726101   -1.09098063131142    4.04758640273219
H         2.03345217810551   -1.36014403869431    1.79089327094575
H         1.39489174620412   -1.67140292030152    4.22265186762259
H         1.45939156240642   -3.42813498300069    3.91240436395085
H        -0.58661902098515   -1.75682325761006    3.08918451732632
H         3.22690604585688   -3.11463655942118    0.67822326308139
H         2.31226770128950   -5.18074232923342    2.62982447113800
H         2.57191620027188   -5.39665096318283    0.96995363784675
H         1.07601308414012   -4.43530271174176    1.47327999366757
H         7.14313982021651   -1.36723723155884    2.71225722732294
