37
 energy: -56.175536371303 gnorm: 0.122167715938 xtb: 6.4.1 (79825abcba525fcdf90b791dcacef51065a7a4e7)
C         4.19053841690730    2.94389138529317    1.85523016264441
C         3.59983013228038    1.55141299911497    1.73252346441749
O         4.60329997507375    0.82076771121397    1.02419829954691
C         4.38125973373695   -0.57383221062540    0.74785831252639
C         5.33725764925880   -0.81968815433042   -0.42713061764828
C         4.76087463904421   -1.39879889639895    1.99761015773951
O         5.20069281242968   -2.73281106586113    1.67364427690039
C         4.44622803883664   -3.59548386572861    2.54813235454968
O         4.38039039383739   -2.76433900587989    3.72277170142514
C         3.68768784467928   -1.68252209013747    3.06240952704936
C         2.42993920520710   -2.36138498898666    2.46569541719559
C         1.34183049876470   -2.39078908803488    3.54232011256558
O         0.10733678966914   -2.50661636575527    2.84701205316039
C         2.98156281419740   -3.78044891148093    2.13950538630073
C         2.42869803637882   -5.04118443731102    2.79499710175477
C         5.88701322129862   -0.73546436108164    2.80772339522427
O         5.69886695315271    0.07358995075510    3.71403758444458
H         4.49589403606956    3.28306996179643    0.86040670645950
H         5.08621472701470    2.82936139701113    2.47500834107838
H         3.41959036226094    3.54588177450703    2.34556187645105
H         2.74814290076494    1.57440600941978    1.04781584908182
H         3.16443269545425    1.32242185546949    2.71071372461533
H         3.33052533804065   -0.80634420677265    0.53869178021115
H         4.94032911637764   -0.43336503484839   -1.37113631047972
H         5.55665115765249   -1.88960293808702   -0.50188945084561
H         6.27656656056776   -0.32905068813375   -0.15717625235784
H         4.98450571684204   -4.54596184484984    2.59304964982106
H         3.54883169724997   -0.83266799598155    3.73292126989467
H         2.03195650106072   -1.77716677830756    1.62967964950550
H         1.26851115546168   -1.44374739775448    4.08907719341934
H         1.43581210042808   -3.24736447901017    4.21606838046089
H         0.23241291372566   -3.33255758067769    2.34993768614338
H         2.88137391508992   -3.90388380391810    1.05391366357959
H         1.37419677777454   -5.26269969695392    2.60509061979365
H         2.62921450673401   -4.97024359224670    3.87062449593932
H         2.85580744091138   -5.93765356191798    2.33557105637286
H         6.86859318448438   -1.23253110604752    2.75532610035763
