37
 energy: -56.174121997877 gnorm: 0.132978194356 xtb: 6.4.1 (79825abcba525fcdf90b791dcacef51065a7a4e7)
C         3.05620212834151    2.56120862675299    1.88663181287512
C         3.43316471370545    1.44562596484336    0.92936288828409
O         4.56186885366289    0.68259262703232    1.36101771656684
C         4.70425981972563   -0.67158873719596    0.89573044221746
C         5.97709588653116   -0.62272428087466    0.03988188602443
C         4.96780770794141   -1.54144640437989    2.14490909997994
O         5.29982416187940   -2.89796592722668    1.78769453695624
C         4.41758863420121   -3.69140086392017    2.60639614758452
O         4.27514179090490   -2.96238117924350    3.84055706170505
C         3.87600630435892   -1.72425157569480    3.21288773046209
C         2.51368671992375   -2.15029658371961    2.61170125807203
C         1.36702415817282   -2.26944314224081    3.61914104954175
O         0.18365170118233   -2.17642532008982    2.83695099564908
C         3.01946775532393   -3.49530433966053    2.01205917753224
C         2.06430190419320   -4.67179488986854    2.18031817372245
C         6.23976956826924   -1.03519622340700    2.84512908871618
O         6.21835559290293   -0.24622767438928    3.78770183022616
H         2.28943503307514    3.18410782766672    1.41543899092467
H         3.94621519273101    3.19304086342056    1.97686999724890
H         2.70452214736759    2.26231943694958    2.87868269940024
H         3.69515379627555    1.81273097222958   -0.06628763789247
H         2.54745914787113    0.83324362211260    0.73092504676758
H         3.85072501655183   -1.00464213242855    0.29372629009196
H         5.72929612453446   -0.47125229392543   -1.01538873165433
H         6.40563387700850   -1.62854504362150    0.09573728361943
H         6.69354540223208    0.04928789636507    0.52050797156510
H         4.93141281260806   -4.63636729914114    2.80182376099387
H         3.80912468846859   -0.93146850974404    3.95997597570699
H         2.17951232592551   -1.39231395388749    1.89587075456001
H         1.36874370143355   -1.39872312143587    4.28476156928697
H         1.36690527926776   -3.22541040348108    4.15075862289045
H        -0.60056777539228   -2.19058196128673    3.41115065929101
H         3.02890610541993   -3.36067807943335    0.92322031812894
H         1.03737763198994   -4.39947475993432    1.91883266441476
H         1.86722254382105   -5.14304073204741    3.15052476232331
H         2.43437785301784   -5.40508468904965    1.45748936394821
H         7.16021830179249   -1.62601356311066    2.71463371392715
