37
 energy: -56.173661331432 gnorm: 0.126964549544 xtb: 6.4.1 (79825abcba525fcdf90b791dcacef51065a7a4e7)
C         4.34561257747173    2.78830046068642    2.14950229641665
C         3.73093299166022    1.54017591807611    1.54341368824793
O         4.67579152120101    0.80656714804751    0.76137830315984
C         4.34060535581143   -0.59277889508938    0.76882731248016
C         4.99381407777556   -1.14922588296451   -0.50343887968335
C         4.75288914709203   -1.29123080223437    2.08364449072472
O         5.18135362067183   -2.64302549609872    1.82470105045122
C         4.50944092483706   -3.48742030207413    2.78056798822508
O         4.30672238073486   -2.61920018230541    3.91194457823967
C         3.66033057371113   -1.59698685594277    3.12232416115101
C         2.49522515160618   -2.32086492264915    2.40302997430766
C         1.36232545511835   -2.37097759549525    3.43161779624779
O         0.19859099785178   -3.00659867967564    2.91921958514527
C         3.14738380501573   -3.70497455889502    2.11430764399833
C         2.29478859196179   -4.90754008377022    2.50379511620409
C         5.85636307248194   -0.44493772933701    2.73985910019352
O         5.77100154567180    0.16972612319110    3.80112017557403
H         4.87110233778902    3.31646084112353    1.34771367439446
H         5.08814988626787    2.43898079157987    2.87482448372416
H         3.70127097064495    3.36610067812344    2.81894185528925
H         2.88287414430710    1.79728691270864    0.90355865211090
H         3.31723228091315    0.98993273719479    2.39485260447432
H         3.28050116240514   -0.67676433584195    0.50240510535605
H         4.66122144199319   -0.56177912601990   -1.36496834061796
H         4.71395773888994   -2.18737029388965   -0.70929477244204
H         6.08551692603040   -1.08975760264234   -0.47998411953675
H         5.14714649660363   -4.33214258495939    3.05432825122689
H         3.26942738299082   -0.77359027162282    3.72260057715190
H         2.09046616989607   -1.77951920668050    1.54178755574133
H         0.97751997915592   -1.36772350186045    3.64751816564720
H         1.55339125715758   -2.84631224247114    4.39807602431616
H         0.37035949071378   -3.95980339512543    2.83674408313906
H         3.43202084637133   -3.71345276220448    1.05473543761091
H         1.45472419788250   -5.02821458573441    1.81326208270858
H         1.92631985480733   -4.71005566690527    3.51742446059336
H         2.85266598010535   -5.84601461663400    2.43175347045892
H         6.83120285979924   -0.73192178609935    2.31483251203890
