37
 energy: -56.179612301926 gnorm: 0.121512236082 xtb: 6.4.1 (79825abcba525fcdf90b791dcacef51065a7a4e7)
C         3.02122928661938    2.46146350418814    1.84118421873774
C         4.00346251646016    1.30465553899357    1.84275881606876
O         3.48732995971742    0.22559583249574    1.06061040578665
C         4.42857295226495   -0.81443635616618    0.73972216379490
C         5.61066000737056   -0.30545373304864   -0.09609062521855
C         4.92134954878711   -1.56532718052063    1.99665946844834
O         5.23587522388039   -2.92334218778681    1.62943849207367
C         4.47599301794114   -3.72324900136131    2.55727413684346
O         4.50200038395604   -2.89949801790621    3.73865972533504
C         3.91932888831877   -1.71412309746529    3.15417440469645
C         2.58299849850896   -2.25516222038469    2.58817795923943
C         1.43114312417194   -2.14034646698853    3.59018216863305
O         0.19058230516715   -1.94500172666771    2.92407912920996
C         2.99775192948400   -3.69266324300273    2.15689919868246
C         2.13544891780643   -4.81293539353372    2.72804432070473
C         6.17395652838396   -1.03291448747251    2.71219894970634
O         6.45648558595153    0.14708717632233    2.91005422667161
H         3.63968175443751    3.29294868972454    2.19347217119670
H         2.17094787554610    2.15339824050758    2.45891836551356
H         2.78807338499888    2.78836233109455    0.82336596242689
H         4.21008479562080    1.01675486809478    2.87675338662590
H         4.86800950444898    1.70354691438119    1.30210343660953
H         3.84425011911039   -1.51665399981040    0.13365908667721
H         5.32631015482737    0.21412305227065   -1.01648710633030
H         6.11276801821711   -1.23232699527388   -0.39144387917859
H         6.25005414709406    0.32974564418432    0.52326274247593
H         4.92573265663421   -4.67916548484937    2.83856890607904
H         3.81473982102011   -0.85669033447275    3.82124951073863
H         2.27167383097450   -1.51301520551870    1.84593926304638
H         1.60836993541049   -1.30914814927840    4.28221324470880
H         1.33382707786334   -3.08882196528877    4.12629268922190
H         0.32522775862424   -1.45902644465640    2.09305296847359
H         3.03998386442138   -3.76555240283422    1.06296729173295
H         1.11261806117346   -4.52355686458252    2.46884652256066
H         2.04191034687230   -4.90746815630426    3.81640448250318
H         2.33424753475798   -5.81686652794154    2.34106497606457
H         6.89614836586846   -1.85764005522532    2.81984068124182
