37
 energy: -56.177461636611 gnorm: 0.115405771693 xtb: 6.4.1 (79825abcba525fcdf90b791dcacef51065a7a4e7)
C         4.05505370885810    2.66112744402853    1.32515068826647
C         3.63952702551401    1.35874136498901    1.98402649068038
O         3.25203979468331    0.23695556488908    1.18780475790931
C         4.19393515021540   -0.76379615266020    0.76130304289808
C         5.27893962095930   -0.24927007929374   -0.19420955899777
C         4.82676081044837   -1.41902281371900    2.00900768322745
O         5.21906141787581   -2.74970469642835    1.61738497819411
C         4.49385251267019   -3.63509438858083    2.49391677298308
O         4.51995875546644   -2.84180317007636    3.69596563978113
C         3.82780452507852   -1.70037313567842    3.14432911688412
C         2.48762821378699   -2.32936327425825    2.68918842698588
C         1.47841236895516   -2.32933963842185    3.84046999757218
O         0.23923896544352   -2.81938355055550    3.34534354096992
C         2.99260971935531   -3.71909463870740    2.20126284763223
C         2.36956620523489   -4.92250981462550    2.90011305645302
C         6.06768158131732   -0.69518471323355    2.55733082993984
O         6.40092065134716    0.45817131211973    2.29257643576839
H         3.26400752768297    2.98629325653972    0.64216386668059
H         5.11107925790303    2.73234736578797    1.04369746424756
H         4.00722222517811    3.36714547473856    2.15967403009572
H         2.74690601135506    1.58873419711351    2.57144061659412
H         4.34317484468250    1.08034101151749    2.77537789359949
H         3.54039554758910   -1.43858917184664    0.19615209254342
H         4.84280760690352   -0.06236200443554   -1.18051518923231
H         5.99817612913265   -1.06749823751978   -0.30210563203364
H         5.80869328947973    0.66739696535890    0.07962300965250
H         4.91076203521768   -4.63931240948905    2.60750121883661
H         3.74716719149779   -0.87486946721004    3.85366705824656
H         2.07681187693899   -1.84495727050057    1.79744615973106
H         1.31958103538671   -1.37560257255564    4.35657580438575
H         1.74294543951396   -3.05290607960536    4.61697790353043
H         0.11578212387424   -2.60295478548835    2.40575700989818
H         2.82734944776993   -3.72648067151884    1.11663486218393
H         1.37729619067177   -4.72588924825042    3.31706264472265
H         3.06608994103481   -5.17749160264889    3.70761087420086
H         2.33881728717461   -5.82654402883824    2.28454155893513
H         6.66411844639745   -1.39488465971470    3.16396341346890
