37
 energy: -56.177617151325 gnorm: 0.118375193519 xtb: 6.4.1 (79825abcba525fcdf90b791dcacef51065a7a4e7)
C         4.15164012965818    2.70556735937479    1.91796594385367
C         3.56299467623610    1.32992009877128    1.66482485973250
O         4.57656554139591    0.68891756321344    0.88745194833342
C         4.60385132048786   -0.74902898146902    0.84119406230360
C         5.69366330460794   -1.05663984244170   -0.19449967754740
C         4.88653599024734   -1.42326985664026    2.20209294625672
O         5.31618720468539   -2.77358381982747    1.93745280832297
C         4.33427223917830   -3.49617638009370    2.70677319205565
O         4.12732280676946   -2.72350480845974    3.90471498740654
C         3.67619044403605   -1.58606135961663    3.13728756950246
C         2.41167180382981   -2.15695560691586    2.44886433845729
C         1.36775617100041   -2.39724636065316    3.54269539953006
O         0.15787191188620   -2.93617325614905    3.02637975152568
C         3.01680568884291   -3.49266639680434    1.92529903326655
C         2.11404219338541   -4.72100807777388    1.95656730578260
C         5.93997158787912   -0.64272421893763    3.00552693983490
O         5.62310705276986    0.21092249635101    3.83151570993561
H         5.14401141330001    2.65238028870268    2.37658151244403
H         3.51278139826667    3.39280299153388    2.48280651128715
H         4.30583507474688    3.09589038055881    0.90749556885513
H         2.64531119967043    1.33231506890987    1.07104406259207
H         3.25454091105710    0.89464356320671    2.62099151243779
H         3.59391661223693   -1.04660608104106    0.53568630960331
H         6.42556997259672   -0.24471888090662   -0.13934949723247
H         5.27106020708289   -1.03686841466307   -1.20418069018174
H         6.12017165853360   -2.05828289233619   -0.09104182393721
H         4.64033067477902   -4.53911882852411    2.82411073468871
H         3.59526848786633   -0.78333744044191    3.87227392315157
H         1.92036479591507   -1.62724963799177    1.62627543110542
H         1.18810016512495   -1.51333862402267    4.16530107179924
H         1.81833826752721   -3.18872362675077    4.14852556108055
H        -0.37609731266285   -2.24275619008513    2.60334843913803
H         3.37957834047829   -3.33599354271067    0.90175958514991
H         1.76579652494477   -4.98051561396520    2.96080193022530
H         2.55195532231949   -5.57704342161644    1.42964289924939
H         1.29631604108766   -4.55521120972378    1.24876297883740
H         6.97371909319940   -0.92651890309616    2.75225492978240
