37
 energy: -56.171888672854 gnorm: 0.120169250131 xtb: 6.4.1 (79825abcba525fcdf90b791dcacef51065a7a4e7)
C         3.95458339074819    2.78782422562423    0.61015332192956
C         4.45027023736298    2.11839281430893    1.87867427103520
O         5.25811119347139    0.93991820765442    1.91198194601656
C         4.46720563460616   -0.20059193641103    1.53214038109508
C         4.92195810973086   -0.56652264952840    0.11289021290352
C         4.73099537144560   -1.31598786994574    2.56793190431989
O         5.31538843693089   -2.43966324469245    1.87958547701275
C         4.47589368212789   -3.56265904399603    2.21466733421944
O         4.13063112716982   -3.25822730510163    3.57959555867357
C         3.55245488305322   -1.96091891445340    3.31701980806052
C         2.42473714662355   -2.38409985729748    2.34335416188890
C         1.29577153290777   -2.90197401218664    3.23845689201957
O         0.01336979561350   -2.85685273160274    2.62669400922425
C         3.10531493778851   -3.52529935652434    1.53162234633846
C         2.37068662191353   -4.85908536777240    1.60984664737140
C         5.80200643442459   -0.87215715288331    3.57809716858525
O         5.61930632299987   -0.56311138905436    4.75388825875538
H         4.75710598383047    3.10741275317961   -0.06199140122611
H         3.50074177061496    3.70156989128147    1.00836784095502
H         3.23821998784076    2.14512575283389    0.08963370870081
H         3.55400125982086    1.76218767492017    2.39301283530596
H         5.00697100005718    2.82212491714068    2.50613698173891
H         3.39948544227546    0.04086181871914    1.47273569880716
H         4.87717328188006    0.35437559616866   -0.47692781433174
H         4.27587267959980   -1.37647660179753   -0.24064656277101
H         5.90043014545283   -1.05484811372344    0.10719594633554
H         4.97644034428353   -4.53178457732571    2.14106330268381
H         3.32474040735891   -1.42841848952394    4.24206489771452
H         1.96440477763206   -1.64523919534670    1.67942454328961
H         1.22543829847287   -2.25553143993714    4.12071095570722
H         1.39436522621933   -3.94144284585481    3.56445458658196
H        -0.61917568438600   -3.24005187616826    3.25752717581088
H         3.38811654772778   -3.14467517029697    0.54221249203957
H         2.45796196030447   -5.27435990375009    2.61832890606250
H         2.80628317120034   -5.49748292427685    0.83208192784895
H         1.29828947715357   -4.73826156086679    1.42952027883690
H         6.78018271182598   -0.84619512539267    3.07231342549871
