37
 energy: -56.180354705294 gnorm: 0.125717775846 xtb: 6.4.1 (79825abcba525fcdf90b791dcacef51065a7a4e7)
C         2.54234419463556    2.21296146584069    1.63053704736179
C         3.85400174650773    1.45389753952830    1.55075177928313
O         3.49944197756657    0.23245687134174    0.89891678101638
C         4.49179376242408   -0.76135642124249    0.58563150093403
C         5.69177590326355   -0.14351751919492   -0.14463837904466
C         4.97123384458975   -1.53736568576463    1.83242901283913
O         5.21587315096332   -2.91939263069581    1.50358931056792
C         4.51857411205111   -3.61713324609005    2.55481856820060
O         4.58812249778427   -2.76006449877775    3.71046131674752
C         3.96600036781258   -1.67466517197273    2.98857821074938
C         2.56448466672226   -2.23615189467149    2.64312110945680
C         1.57418706431112   -2.07501893144117    3.79954348649024
O         0.19761947776439   -2.03257558781981    3.44725921389810
C         3.02619337540580   -3.65934702099863    2.21210872475380
C         2.30434013844380   -4.82379078498054    2.88127354676343
C         6.29483812835154   -1.09758993295016    2.47984949395154
O         6.33333526772691   -0.39850115162271    3.49037716044599
H         1.63707151749862    1.61906362406420    1.79092595848957
H         2.27928061645978    2.66509382429478    0.66832498913132
H         2.62129621546250    2.92863050482174    2.45440774458862
H         4.23230142898834    1.20832750869517    2.54639681996023
H         4.63129350804288    2.02290786680409    1.03026275447525
H         4.02638322017593   -1.43046872201751   -0.14753765160506
H         5.43000268660744    0.04750188800328   -1.19007174972169
H         6.48585957944550   -0.88048215029826    0.01269658913176
H         6.14664173240874    0.73604916666043    0.31943190663304
H         5.06243821279553   -4.52692551689903    2.82250996259867
H         3.94118121051673   -0.75035570762316    3.56836700464255
H         2.23189847634058   -1.74138399280128    1.72485389921780
H         1.86142736348895   -1.19959788873316    4.39312414774794
H         1.63275471516590   -2.94045484438230    4.46593765071967
H         0.07144134593956   -1.37152064927558    2.74583829954512
H         2.93109612571029   -3.77860689115891    1.12559274184739
H         1.25892433925434   -4.56984543128601    2.68196484414132
H         2.41655021310689   -4.70084229690474    3.96501997593702
H         2.70972598705838   -5.81014570258934    2.63649217701868
H         7.16473027390657   -1.61753008954301    2.04825946869663
