37
 energy: -56.184552726699 gnorm: 0.119809033694 xtb: 6.4.1 (79825abcba525fcdf90b791dcacef51065a7a4e7)
C         3.30516929599049    2.88089052318550    1.48753029315580
C         3.63970876822339    1.64012774849768    0.68032502283789
O         4.26271260967405    0.76976173778367    1.62734563110906
C         4.63582047894542   -0.50694869466257    1.07836877194677
C         5.94336654945116   -0.32107406389060    0.29686378221960
C         4.86063968858717   -1.53364619308323    2.21058155224711
O         5.11913231959847   -2.82503255268402    1.62450540820156
C         4.32878770360402   -3.67909184901375    2.47543958463275
O         4.27402194732248   -3.03328908267484    3.76185066755931
C         3.77415710889692   -1.76915302671748    3.27365190230405
C         2.44526819341875   -2.21589412337755    2.61537320893639
C         1.36127877769413   -2.42496525058672    3.67613807336633
O         0.13287644524145   -2.55193239718220    2.97204218191413
C         2.89961262618546   -3.54377919369402    1.94104143670046
C         2.05897232935976   -4.77079655158443    2.27650413154045
C         6.20522490752819   -1.26493835436880    2.90654920199660
O         6.43796978448803   -0.35864251633532    3.70393931114014
H         3.12602084864127    3.77176696519940    0.87744598015171
H         4.14748847684537    2.99649010675982    2.17790214632204
H         2.38286293022521    2.69765835265879    2.04695451577960
H         4.37565887343363    1.89091481431740   -0.08792469526169
H         2.79935966960619    1.11683684324655    0.21251727871648
H         3.86231260192331   -0.97873453518590    0.46115006480200
H         5.74309675791616    0.37761707083454   -0.52146822623427
H         6.26216877686186   -1.31299661461450   -0.03913448349410
H         6.65047644553351    0.14840286734999    0.98642068416547
H         4.85204352532761   -4.60103307481228    2.74264088556125
H         3.78838707736827   -1.07199357644380    4.11322632438453
H         2.06663417013336   -1.51685947054180    1.86263797025256
H         1.43635174724036   -1.54503688841038    4.32521212287780
H         1.52850332922335   -3.30173361190353    4.30843852263778
H        -0.56071237746587   -2.94110206476234    3.53095842497565
H         3.06428139985921   -3.42703846240052    0.86259849567485
H         0.99572010141484   -4.60963407576133    2.07494087589762
H         2.30146735323337   -5.14847407759360    3.27688885790704
H         2.38667001667487   -5.57906031998636    1.61584118119462
H         7.02048237941124   -1.92299550271085    2.56649612099356
