37
 energy: -56.177530060019 gnorm: 0.130179865803 xtb: 6.4.1 (79825abcba525fcdf90b791dcacef51065a7a4e7)
C         2.43499134417721    2.20769661665903    1.40459697378472
C         3.41671698650861    1.36015856923307    0.61663549808569
O         4.13227906642698    0.57310190084086    1.57111520832582
C         4.96078591558067   -0.47606753150881    1.03876709978051
C         6.35229718710469    0.03013448693753    0.63573850832444
C         5.05867060898031   -1.54827740109253    2.14662169088547
O         5.00453739190548   -2.81140516533380    1.45411879139958
C         4.28360719141696   -3.65279324544297    2.37633167935173
O         4.33396284878576   -2.99105187269772    3.65479819749315
C         3.92154020515681   -1.69364767938504    3.17220853257313
C         2.56533352083645   -2.05468599823918    2.51706811357064
C         1.52717402732432   -2.06129175918568    3.64230014523940
O         0.18506778413741   -2.22164997628855    3.20198202822874
C         2.81603562110338   -3.49022503335740    1.96860926731045
C         1.97731247646602   -4.64530889537137    2.50443357527829
C         6.42116685578534   -1.56383016360645    2.85925509672813
O         6.50283673765945   -0.99056556048624    3.94372318856562
H         2.19277951253635    3.03212905980274    0.72665712005008
H         2.81877044605488    2.79943600512832    2.24247301292575
H         1.49478983322518    1.80181807157663    1.78990496088642
H         4.09626166566267    1.96830455807360    0.01405619029264
H         2.90307377979251    0.71213961647329   -0.10107346490803
H         4.50762899844755   -0.99168640747539    0.18399155420906
H         6.24034574929441    0.62105108594434   -0.27871707497000
H         6.88398147064845   -0.89894037927502    0.40645318210962
H         6.83569445912627    0.62111835532505    1.41866050552190
H         4.71177089105524   -4.65222806429121    2.49023823956581
H         3.81469377058593   -0.92119125937132    3.93576201831771
H         2.20174211845640   -1.39247250821839    1.72466789943573
H         1.63429507691635   -1.06591064259572    4.08833659167004
H         1.71224115371199   -2.86111692759241    4.36515596052968
H         0.02966769630970   -1.41655409582203    2.67989267881203
H         2.80853455511858   -3.39895394554707    0.87526727763557
H         0.91865376063594   -4.37059586389372    2.53411295202061
H         2.38542859195724   -4.81557234453378    3.50776071475105
H         2.26183048060295   -5.50705276370890    1.89320641636081
H         7.21557540458808   -2.21423047682268    2.46023812783435
