37
 energy: -56.175490148170 gnorm: 0.127386948442 xtb: 6.4.1 (79825abcba525fcdf90b791dcacef51065a7a4e7)
C         2.63944625574240    1.82504210390505    1.00038141322942
C         3.66891007660783    1.66080350016663    2.10320468837375
O         4.87986926556682    1.04026498343462    1.66613652252072
C         4.84665506159277   -0.33935903658624    1.25857187120519
C         5.91188730576276   -0.53334997776122    0.17108673446543
C         4.98609389070011   -1.42567358064291    2.34808308935312
O         5.28677598991906   -2.65809490110656    1.66345883472935
C         4.30539995910156   -3.58314970600936    2.17269901164414
O         4.29347822775420   -3.24210168422824    3.57214822290786
C         3.89553716069213   -1.87385945718853    3.33593017523258
C         2.51817097852130   -2.05027534290336    2.64993160708698
C         1.39026181517758   -2.44580521906338    3.60666716003574
O         0.07846768414729   -2.51564489336276    3.06337852339540
C         2.91807675195977   -3.18400261035132    1.66040201117016
C         2.12351456011663   -4.46679644446596    1.44155542187369
C         6.20982164018025   -1.17685331025010    3.24533620218944
O         6.09278628059734   -0.53981012743385    4.29025343465427
H         3.19626238381781    1.63332908796625    0.07779819908985
H         2.29976761031703    2.84665109709428    0.79935494851512
H         1.75768533727499    1.17896796692488    1.04796721693393
H         3.31677620240057    1.19745596314606    3.02842635089107
H         4.01882571019829    2.66532803320112    2.36273035883132
H         3.89423182138925   -0.53893447093799    0.75368093865855
H         5.59394566613109   -0.00679354735594   -0.73422868261890
H         6.04983347346299   -1.61578327912808    0.08305807995141
H         6.81193675725531   -0.11240394845511    0.62783298814317
H         4.60712576163059   -4.62098266581825    2.00828154136399
H         3.80583734030466   -1.18276113418281    4.17584449117649
H         2.28000773200969   -1.12704856112889    2.11182929908106
H         1.29971839050794   -1.70097796730043    4.40556718253788
H         1.66153414464436   -3.45549201407098    3.92827961693632
H         0.03641451910887   -1.64290963103709    2.63738492401642
H         3.10938208141735   -2.77422452733872    0.66076828927559
H         2.24499225158782   -5.15370870543866    2.28446769922994
H         2.49038633205364   -4.90168203212354    0.50427564399975
H         1.07307147616227   -4.22073858504167    1.25941128811850
H         7.19575357702035   -1.50702099165831    2.88167761322308
