37
 energy: -56.178458807216 gnorm: 0.119521785039 xtb: 6.4.1 (79825abcba525fcdf90b791dcacef51065a7a4e7)
C         5.24253476577467    2.98012477215028    1.66657330341022
C         4.17920034967614    1.89828631241534    1.62258746103313
O         4.82480763866943    0.78059852201240    1.00900446678726
C         4.06461081860686   -0.43822044273754    1.09359700835864
C         4.19420701046987   -1.14553332072515   -0.26209089099959
C         4.58184204936449   -1.19391066267438    2.33776812399866
O         5.20602047197567   -2.44738723155222    1.99545186840367
C         4.53035630116437   -3.42924740853968    2.80636459322601
O         4.08328440655838   -2.75659263020051    3.99908261526234
C         3.45107650805642   -1.69359217811220    3.25303557700199
C         2.43793734225954   -2.49631078140935    2.39977928566912
C         1.12146723343657   -2.76521695102875    3.13364708690848
O         0.28724172274246   -3.66936979512297    2.42131328471447
C         3.25092887268834   -3.77399092541711    2.03782719242621
C         2.72601049367570   -5.12371347825152    2.51478917201775
C         5.72294496203810   -0.28515276286137    2.82410943258605
O         5.62094528971731    0.56972944157300    3.70168902630478
H         5.31992612728630    3.51471769091972    0.71463902898271
H         6.15553521431709    2.44219489796719    1.94323157040322
H         5.00700509456213    3.71674184474551    2.44058854097132
H         3.27912454297208    2.16722589421964    1.06378570849798
H         3.86962317765295    1.59685734987438    2.62865238663561
H         3.00129969381096   -0.17182493800862    1.07752602933399
H         4.05339871940451   -0.45071008089497   -1.09596036671951
H         3.37793608375231   -1.87437336509526   -0.29265312749722
H         5.21202344907566   -1.50204611075203   -0.44333682738273
H         5.30435105272323   -4.12308915820933    3.14501574956369
H         2.97335458634199   -1.02943126472698    3.97538674976037
H         2.18003315415442   -1.94596971305710    1.48915656568792
H         0.61751855566929   -1.79531965662930    3.21452970220561
H         1.26545554381491   -3.18168745845283    4.13480161610245
H        -0.54559622692956   -3.73643725532017    2.91809166912272
H         3.44378195898873   -3.88105149458481    0.96305784400547
H         1.70738362704403   -5.13988081327662    2.11573487787433
H         2.65921816580430   -5.06906851908922    3.60784291371778
H         3.32798453003657   -5.93326675856022    2.09122997828600
H         6.70208903611996   -0.59345644252059    2.42467745330695
