37
 energy: -56.170687871363 gnorm: 0.132666328500 xtb: 6.4.1 (79825abcba525fcdf90b791dcacef51065a7a4e7)
C         4.22943030938150    3.03271697993969    1.69108739508185
C         3.69186408818304    1.61355882399877    1.69248581451392
O         4.74686878933351    0.85893708855610    1.09246087735164
C         4.35943485315075   -0.52153749659690    0.97097239083043
C         4.98806709553692   -1.13001850877373   -0.28980058639937
C         4.74389170999737   -1.36081729031382    2.20966505915176
O         5.27755206089144   -2.65074942287084    1.85013186888531
C         4.51340859934505   -3.55828736990238    2.66903998359092
O         4.38359438670721   -2.79972150676841    3.88667706645266
C         3.68843071725861   -1.68873074391929    3.27947871531821
C         2.49785479218696   -2.28274528226911    2.48667994756291
C         1.20043471810379   -2.32724228901374    3.29827531402105
O         0.14485765016337   -2.98151427398254    2.60651727412158
C         3.08394763718888   -3.68110398463020    2.13239325106633
C         2.36025655537075   -4.98573606601824    2.44701883397130
C         5.98924671347956   -0.61375893195976    2.71511436185960
O         6.00776378402462   -0.08388089392795    3.82428508598001
H         4.32793323659562    3.31429848317968    0.63801242113280
H         5.16677005085766    3.10807769849570    2.25250803278542
H         3.51464990893969    3.76224605238584    2.08358558961495
H         2.75038468953107    1.54119447266758    1.14193674359819
H         3.53588525081039    1.34951830013146    2.74358869593140
H         3.28665012732279   -0.45324599546953    0.75574126404835
H         4.83642686547773   -0.38850010062178   -1.08043340625668
H         4.48855166738902   -2.10217628963525   -0.35171689728703
H         6.03687609434755   -1.35706007861388   -0.07919782996572
H         5.15230764416474   -4.44538480466019    2.67495255094842
H         3.33996782418486   -0.93624332886667    3.98902454571430
H         2.34224497845991   -1.82567361997423    1.50408410564554
H         0.86648944700810   -1.31841062971614    3.56650325302285
H         1.46192654174551   -2.82915601639580    4.23432835934621
H        -0.48904812352506   -3.38314675563773    3.22438511637604
H         3.26759018273064   -3.68910803509611    1.05073030556597
H         1.52838468668036   -4.99626617542539    1.73639607923799
H         1.86419746525630   -5.02263489144574    3.42414605248947
H         3.04839979725812   -5.82452754601652    2.30545840423270
H         6.90255700661419   -0.84629384333648    2.14492853716606
