37
 energy: -56.181522718401 gnorm: 0.118761854499 xtb: 6.4.1 (79825abcba525fcdf90b791dcacef51065a7a4e7)
C         2.91840496171415    2.51316492368684    1.51945218351727
C         3.50981298853668    1.38554207936500    0.69380544988414
O         3.84029301352833    0.28719341299725    1.54640849968062
C         4.66436542506126   -0.73085466463238    0.95054160290267
C         5.98631462411331   -0.27299213234858    0.31983696150910
C         5.05181462113027   -1.66947928099220    2.11476843410000
O         5.28705068552458   -3.03629381885744    1.72174885935405
C         4.33045320174390   -3.78397964834770    2.49894767538648
O         4.38443377766124   -3.11073720081386    3.77124664418429
C         4.03915144305638   -1.80283207342576    3.26488005034826
C         2.65384761659954   -2.10062824277054    2.63949621545267
C         1.62146947122450   -2.08086544410922    3.76988140191127
O         0.31269551104079   -2.08515748085038    3.21496134851332
C         2.92665759456339   -3.47845777256111    1.96749067496019
C         1.86907181504427   -4.55084276382894    2.20473664694459
C         6.33687982439242   -1.15949072142122    2.78782367474993
O         6.21068062226855   -0.24390937588669    3.59847641944742
H         2.43598021031631    3.25273722221535    0.87272423235992
H         3.72294039929420    3.07378898934119    2.00720370455538
H         2.22873939618893    2.14266662121183    2.28382835718291
H         4.37722679454246    1.76306624672300    0.14627177410418
H         2.77955752803761    1.03281404559672   -0.04183981653924
H         4.07139148825335   -1.17525350285558    0.14261412914649
H         5.72754900725675    0.23280837022078   -0.61565797091388
H         6.63843879285757   -1.14509359702846    0.20752872775194
H         6.54837649161973    0.49544988720674    0.85787508277093
H         4.59503785709100   -4.84400082962631    2.53792018422312
H         3.90049969088817   -1.04636151234312    4.03924880477730
H         2.35706290370880   -1.37682917494142    1.87356068012038
H         1.85080522104700   -1.25172248662659    4.44894992515853
H         1.66766648676028   -2.95045849284485    4.43182129989584
H        -0.26989285422059   -2.22917941659172    3.97965365989597
H         2.96726423833797   -3.30852696572037    0.88432033144258
H         0.86145071570098   -4.28446631147069    1.87179568045056
H         1.86239699211721   -4.74330715183845    3.28414697383582
H         2.09267422564704   -5.48741227436517    1.68512993532258
H         7.22839810169296   -1.68073736609767    2.40465642470504
