37
 energy: -56.180130988011 gnorm: 0.121339035135 xtb: 6.4.1 (79825abcba525fcdf90b791dcacef51065a7a4e7)
C         2.41387978958902    2.07406796060887    1.69272666584148
C         3.45834480535449    1.39590712668336    0.82544356499068
O         4.33944472432404    0.59892103510331    1.61979544104564
C         4.92829061836984   -0.60924187792696    1.10581345212914
C         6.24854763790384   -0.50529739018898    0.33051151495214
C         5.14732819742993   -1.58284202441843    2.28508547609810
O         5.24515891927811   -2.92367341222688    1.76490978891708
C         4.25025472106380   -3.66949137839207    2.49434248483924
O         4.16078913266177   -3.03176676399639    3.78283664342070
C         3.92015892825099   -1.73210997253665    3.20040022585837
C         2.55927424780226   -1.99014525158018    2.50738877153198
C         1.49201595222392   -1.99430962935602    3.60507191640168
O         0.22705448280683   -2.08678959739313    2.96307198647109
C         2.89812811561170   -3.35809489600579    1.84532926035805
C         1.80263310068146   -4.39949402997418    2.04573246000327
C         6.50954929071162   -1.32059063430942    2.94845728721416
O         6.71657059343196   -0.30710166787495    3.61280328110133
H         1.65091197773780    2.61326912702842    1.12255117658247
H         2.92958426231177    2.70799774969856    2.42187691063952
H         1.90593520088548    1.23281048252371    2.17382610562744
H         4.13390811971717    2.10362946979773    0.33813705969187
H         3.00944764570438    0.73941456462863    0.07286604897465
H         4.18881744868439   -1.09696000670116    0.45992978554904
H         6.13125535199048   -0.01404060397945   -0.64049510328458
H         6.62350882534885   -1.53202681871516    0.26992413707207
H         6.94516159164079    0.11530612877011    0.90102179939251
H         4.63118603736018   -4.67956968302411    2.66697493613996
H         3.80905863370202   -0.92816626893160    3.93009211357562
H         2.12418353437404   -1.29893079222267    1.77831939810637
H         1.53008737259010   -1.02164549910002    4.10874051250730
H         1.67562802448374   -2.76777593999886    4.35642213106017
H        -0.40715860589001   -2.56679669356254    3.52188572845825
H         2.96461001142236   -3.08505597184378    0.78475711020074
H         0.79345281531804   -3.97944255088290    1.99863367059361
H         1.90821567177237   -4.74955434793280    3.07942673184383
H         2.01610863325842   -5.19638725577720    1.32702458300239
H         7.30456706544029   -2.00033257183614    2.60317814509752
