37
 energy: -56.173437983027 gnorm: 0.116889154081 xtb: 6.4.1 (79825abcba525fcdf90b791dcacef51065a7a4e7)
C         3.61756445721930    2.84438110888361    0.94077956444916
C         4.02775621011685    1.68194382815849    1.82591885105107
O         3.41869730495441    0.45738410112376    1.41116648521284
C         4.27532051980346   -0.59968453581689    0.94278933356223
C         5.28371748698680   -0.12358251982908   -0.11145853171605
C         4.84958989525455   -1.45817108764310    2.09160295102053
O         5.07516479882013   -2.75881000476695    1.51243390040219
C         4.40933647149256   -3.66579671662014    2.41365452221512
O         4.51496483988491   -2.98435829263351    3.67832772111423
C         3.82875639791287   -1.81248797442935    3.18631065563247
C         2.50744257065249   -2.39056437124194    2.62167656219805
C         1.43103047620070   -2.34438557852645    3.70941293604495
O         0.24522148435752   -2.96138838324342    3.22566863618144
C         2.90318803008312   -3.83340535515683    2.19036878115051
C         2.46762483286630   -5.00197614779614    3.06758593816136
C         6.20324470406464   -0.97002171677027    2.63364825909402
O         6.45825186927803    0.20912148964346    2.87021950267269
H         2.70073817728886    2.51968373633266    0.43882432952248
H         4.43631655881976    3.21846006854508    0.31693015341605
H         3.35827029118951    3.66703423276271    1.61397113717301
H         3.85194957323451    1.93386249981052    2.87489613584379
H         5.11745855313592    1.58663350129635    1.87417654676078
H         3.53951491431110   -1.20196122454181    0.39716294366196
H         5.87530033789267    0.74549611521695    0.19296980882463
H         4.74537939062316    0.15155649747027   -1.02410887697001
H         5.99676793801094   -0.94052314071941   -0.25312288177775
H         4.89628361992127   -4.64420400160610    2.38589701296288
H         3.66432025427428   -1.02324338653413    3.92195509972685
H         2.12602599935954   -1.90561721949475    1.71725897219408
H         1.13906418351462   -1.35297976056655    4.07421038933617
H         1.70266025736639   -2.91552870089377    4.60188336599293
H        -0.50835310654710   -2.40016154083395    2.97655898338729
H         2.45619535910649   -4.06863332965588    1.21638277673818
H         1.39102355194205   -5.15882549222331    2.95167925721508
H         2.81781497656179   -4.90346694261837    4.10193430978859
H         2.99643391002205   -5.82917759072181    2.58462593535741
H         6.94305702252145   -1.78586267207145    2.61361524841849
