37
 energy: -56.185155386859 gnorm: 0.119583043387 xtb: 6.4.1 (79825abcba525fcdf90b791dcacef51065a7a4e7)
C         2.79757254916760    1.96610409389074    2.40636084575979
C         3.98289276221421    1.49181891524061    1.58595922163918
O         3.53608179152157    0.28963254289513    0.95538275811406
C         4.47264581554838   -0.75011254474679    0.62019241686771
C         5.72870193737849   -0.31796704561688   -0.14827971522540
C         4.86463302911861   -1.53212433427764    1.89351907371797
O         5.17462331155226   -2.92477956665617    1.68760687028370
C         4.46928560255790   -3.68298429494293    2.69049029771910
O         4.31125034196655   -2.73114677597089    3.76004355375948
C         3.74368469811808   -1.69035781752585    2.93489481900483
C         2.50976913067699   -2.39628966670949    2.32010476704200
C         1.31316314912442   -2.29872326735142    3.27014730462274
O         0.90083787566716   -0.93986416702303    3.33597883252474
C         3.06183991090272   -3.83631217945061    2.10566597503518
C         2.21576711626744   -4.84113873479339    2.87978958041429
C         6.21457933702427   -1.05703446135110    2.45603026601779
O         6.36851234635900   -0.14771602282438    3.26893733940484
H         3.10934360666852    2.52100709564710    3.29677610565461
H         2.18073687320737    1.15387113134970    2.80544670479867
H         2.15742076905774    2.68483241606439    1.88596309699376
H         4.83873613429313    1.38073280077148    2.25671724801908
H         4.23485719043747    2.30291208309865    0.89494123573682
H         3.89984567576591   -1.42843165785762   -0.02295486455846
H         5.50940320519770    0.36379728829680   -0.97595719879353
H         6.10004914622588   -1.24855589736723   -0.58935304336261
H         6.54093784403886   -0.00227237839493    0.51241039028541
H         5.01489339621970   -4.60134561960092    2.92307023832321
H         3.51038984137718   -0.74709263164512    3.43182872801056
H         2.23177592385325   -1.91610304576771    1.37630176604255
H         1.62732206792130   -2.62955335088597    4.26667258131446
H         0.52111514674869   -2.96606476564852    2.91828659305619
H         0.42159829795959   -0.74727735064382    2.51248287095530
H         3.05315270701979   -4.03396379842259    1.02648028414321
H         2.13021114837068   -4.68658321571407    3.95955768504925
H         2.77099114827916   -5.78662082553269    2.87788033127503
H         1.23936606074826   -4.89373982058343    2.38884586214652
H         7.12940549096635   -1.54595639280951    2.08539769706026
