37
 energy: -56.175936677434 gnorm: 0.118658816857 xtb: 6.4.1 (79825abcba525fcdf90b791dcacef51065a7a4e7)
C         3.60001478978093    2.65124973157108    1.34148482928308
C         4.37531043574013    1.67001474113605    2.20118467275830
O         5.24242012289823    0.78877940065980    1.48420219384931
C         4.54686575821677   -0.41390328987405    1.10959162885288
C         5.15438388770512   -0.96587155803238   -0.18703047691606
C         4.77128443509840   -1.35677620148735    2.31258128178316
O         5.34055023738226   -2.64384426662532    2.00053221080174
C         4.39445476805434   -3.59100778774117    2.53526156730541
O         4.07678967213786   -2.98307033036585    3.80191657370858
C         3.58047356713417   -1.77051336118628    3.19395376787534
C         2.40107098407843   -2.30262748022543    2.34264987750821
C         1.34888882805129   -2.64518626181322    3.40072931120026
O         0.05622266091639   -2.71703799361072    2.81362158625151
C         3.14722432489055   -3.48227518056046    1.65263722287514
C         2.30644527587624   -4.75208382727052    1.57874866426315
C         5.80487472396002   -0.65329852224664    3.20773184551987
O         5.59559324636712    0.08786107047742    4.16598912882744
H         4.20314870829265    3.36090113701790    0.76652202348336
H         2.94492731054017    3.17308477428031    2.04719492826654
H         3.01165565608160    2.11481170732853    0.59098746333570
H         3.58192043064640    1.12228268378242    2.71620528548233
H         5.02488971289638    2.14534763782000    2.94345784623932
H         3.48634435760789   -0.14707078323068    1.03245534866170
H         5.47202865412141   -0.12005201916333   -0.80479715671967
H         4.37360410172464   -1.56642263503275   -0.66469287677985
H         5.96688893924169   -1.67066091185828    0.01047702662611
H         4.98120286752748   -4.51239473165878    2.57932491467726
H         3.39245321666518   -1.16185338903012    4.08012552698940
H         2.04019071263082   -1.50888816912800    1.68055709736023
H         1.37307150580320   -1.80743861435024    4.10698781511434
H         1.57279025995950   -3.54794572455398    3.97638908182892
H        -0.15774987707799   -3.57057774022113    2.40059434071585
H         3.48749926501446   -3.10124104304195    0.68165352919394
H         1.97434858826801   -4.98017561324103    2.59599608713514
H         2.83704101125323   -5.57450574495078    1.08447737618923
H         1.55808086908567   -4.42477432901418    0.85075770466872
H         6.84571475400831   -0.99733701228297    3.09998400535974
