37
 energy: -56.174869976302 gnorm: 0.117955115176 xtb: 6.4.1 (79825abcba525fcdf90b791dcacef51065a7a4e7)
C         1.93310121509041    1.41302021351933    1.64686237124343
C         3.34620147339157    1.29785854951737    1.10568336946961
O         4.28379266497885    0.54469232031698    1.87781172192685
C         4.90779125755472   -0.56790441946442    1.21198227547640
C         6.16271332241827   -0.05892027212351    0.49012224728167
C         5.25105646646137   -1.72324923904048    2.17836964907695
O         5.14962527268017   -2.95940075480489    1.44377891686724
C         4.21469068009254   -3.79334030228693    2.15693598090130
O         4.26252850381965   -3.30857070985644    3.51252587435787
C         4.13181949515333   -1.90047911813092    3.21852571605031
C         2.73548353674359   -1.95710446458605    2.55077300230981
C         1.65755877797102   -1.76235200631081    3.62040639657538
O         0.40367603411938   -1.44217776932857    3.03209483171396
C         2.81494410654526   -3.30367695387725    1.77304584588045
C         1.70731580520592   -4.25040215427642    2.22210472490749
C         6.55538145002136   -1.62876903787750    2.98725412364481
O         6.99755235897049   -0.55816922958857    3.39916946277271
H         1.21486600784713    0.65207777479708    1.32582863558104
H         1.54082520701758    2.39990624075401    1.37918035395151
H         1.99235961724691    1.44642114960937    2.73890236087104
H         3.86992331899272    2.25443902614667    1.03224252019968
H         3.25321013789039    0.87268808357318    0.10097109780738
H         4.17799797684426   -0.95491254606135    0.49123146629233
H         6.00528909821725   -0.02712315764374   -0.59253703488532
H         7.00537198456837   -0.75179106924057    0.58120724731547
H         6.44413568840224    0.91302226630394    0.90488828577894
H         4.47447635546484   -4.85452877450810    2.11744872318240
H         4.21610509517526   -1.37388212145621    4.17073922103847
H         2.49209142312308   -1.18632391197784    1.81234146072736
H         1.91001990935199   -0.91903808253760    4.27331680520139
H         1.58357310254226   -2.66961804879985    4.22694173903811
H         0.44311840929617   -0.60793073525525    2.53471968386574
H         2.78007616467629   -3.11161518680674    0.69337928190755
H         1.86082672502052   -4.37391880821562    3.29834095741298
H         1.78557462709709   -5.29486793562528    1.89778922947082
H         0.75276071267311   -3.73238905998866    2.08929418600658
H         7.06490887297505   -2.55951481428479    3.28291296808827
