37
 energy: -56.170103166859 gnorm: 0.125851509485 xtb: 6.4.1 (79825abcba525fcdf90b791dcacef51065a7a4e7)
C         4.32061852160352    2.88234466905101    2.12429714840077
C         3.71217715156063    1.56939309294517    1.66719045669793
O         4.69231777050794    0.79519855616293    0.97259273113078
C         4.39854908973137   -0.59157222505611    0.72532488178390
C         5.35492877828253   -1.06302979881309   -0.37832443603340
C         4.69857354503889   -1.33615066856816    2.04522847897678
O         5.16563798364623   -2.66440621196933    1.73608379931323
C         4.43471303258252   -3.55526962909408    2.60226042491096
O         4.18117017028853   -2.78048341523228    3.78983623800468
C         3.60657750950115   -1.66261275813979    3.07818230166198
C         2.39515273608142   -2.41434069554628    2.47302998507994
C         1.26308514237982   -2.35105740048672    3.50180793905046
O         0.00734974488571   -2.67810193005726    2.92127847509654
C         3.00972653152952   -3.79367331383876    2.09333071848463
C         2.44947341354603   -5.09339618979768    2.66044605735441
C         5.80870536329710   -0.44473714571214    2.62615323063286
O         5.80421086807216    0.27545501273099    3.62248468332321
H         4.65079839198886    3.30893077165449    1.17195087680283
H         5.13786275694583    2.82142002944463    2.85084942393366
H         3.56133399622203    3.56364474058573    2.51989257724750
H         2.94145806224367    1.71875272056631    0.90665897954527
H         3.40491669464853    1.05322215044393    2.58262621932478
H         3.32847333052590   -0.65160768200497    0.49469775699654
H         4.87624374058055   -0.70741436838401   -1.29611682680476
H         5.58250266314433   -2.13133809824647   -0.45158796311459
H         6.24865634221932   -0.46138283123412   -0.19077793841253
H         5.13654230122298   -4.37143867183066    2.79323839237740
H         3.33376743118303   -0.95221226582798    3.86050244356667
H         1.97178815777441   -1.96802609732905    1.56738699577547
H         1.14748933635701   -1.28101408978948    3.70881499425247
H         1.66782357976863   -3.00899453342273    4.27627304503771
H        -0.05012400486966   -3.64846197961800    2.91927975958525
H         2.94211231874350   -3.92162507048120    1.00574621872694
H         1.39143338938591   -5.24674462990135    2.42776182774135
H         2.69696694225115   -5.27572243959277    3.71292781058972
H         3.11036744218771   -5.85395612702466    2.23392607859716
H         6.67010377075666   -0.69465859419201    1.98673778149830
