37
 energy: -56.172092064907 gnorm: 0.118351286303 xtb: 6.4.1 (79825abcba525fcdf90b791dcacef51065a7a4e7)
C         4.20173777616602    3.17896658853220    1.25715938846545
C         4.62494147371325    2.01701348248986    2.13679162377545
O         5.21453932922687    0.89574201014224    1.47524536435620
C         4.40285375509368   -0.26760620774168    1.23366297686449
C         4.80193236894131   -0.77780361426729   -0.15752752613264
C         4.64787902581181   -1.30130519499527    2.35526282326921
O         5.23621607946391   -2.47882965656259    1.76765916726220
C         4.57183625934577   -3.57960030321336    2.41962104877884
O         4.20733158251420   -3.03739016537055    3.70338834724068
C         3.51437520012054   -1.86125132308909    3.23142253531972
C         2.36915668663502   -2.48004659428770    2.39212452073057
C         1.12466927654471   -2.71461634856963    3.25246979759344
O         0.03131881500842   -3.11954070792516    2.43916481266128
C         3.16857675382074   -3.68490125742586    1.81447085962026
C         2.44284671292531   -5.02418070571832    1.88102445742983
C         5.68472373487344   -0.74385410663831    3.34454823140806
O         5.41766349738356   -0.31644808200291    4.46587612021285
H         4.84647644645027    3.17615049170872    0.37270363227278
H         4.29968367040722    4.09272858455451    1.85291418364221
H         3.15942424065239    3.11436629846998    0.93068149483488
H         3.71755051400089    1.80387099078523    2.70769989835082
H         5.41052545918523    2.24985711006470    2.86308750660008
H         3.32000700843140   -0.09774810300411    1.21253496947645
H         4.46269384580290   -0.03970671023802   -0.89106331390814
H         4.19681089317061   -1.65613375350317   -0.40411261602218
H         5.89346686389174   -0.84424777115806   -0.16379917634652
H         5.19342435204573   -4.47820090552870    2.45587030132780
H         3.22040405169786   -1.26507336906954    4.09702741696942
H         2.05279862494136   -1.88400821946969    1.52998802386672
H         0.87119519752198   -1.71713981505478    3.62929661739618
H         1.41562860556789   -3.41916792937841    4.03696989750117
H        -0.34901762768873   -3.97590476283987    2.69779707458693
H         3.38135473623172   -3.50685016323615    0.75295933466917
H         2.13912077378784   -5.52653149601347    2.80433405888345
H         2.94588659558468   -5.75744040185849    1.23954581888925
H         1.52666700472569   -4.87389627458412    1.30207630896803
H         6.71090072197244   -0.93358565248085    2.99201058764987
