37
 energy: -56.184028329827 gnorm: 0.112149170620 xtb: 6.4.1 (79825abcba525fcdf90b791dcacef51065a7a4e7)
C         3.42319194227097    3.01722557239725    1.19559121307250
C         3.65463933056494    1.59658810445436    0.71474762778646
O         4.23943633081065    0.73172866723635    1.69073401423814
C         4.55010905319091   -0.57331228636963    1.17022929590195
C         5.79524075832925   -0.49405237054697    0.27672996262204
C         4.91663423736215   -1.54823612272999    2.31116750477096
O         5.13510297983023   -2.83381203894200    1.69671785516660
C         4.31596603027315   -3.74696330115859    2.45389702244818
O         4.35027317020406   -3.20547900368384    3.78826269472691
C         3.86864334474269   -1.90688903671901    3.37845828306277
C         2.50048374519064   -2.25480720001543    2.74131900160835
C         1.47302018756183   -2.48812363001400    3.85210609637920
O         0.17656406082178   -2.56367972408869    3.27388748935937
C         2.91112967308547   -3.49684659098738    1.89684339939551
C         1.94544503040164   -4.66596580508800    2.05620575928831
C         6.22171143032085   -1.10957960378023    2.99588513813351
O         6.44416134369668    0.03202747663111    3.39415968083561
H         2.87082365793254    3.59671184956323    0.44923821228836
H         4.37800362691210    3.51646061358065    1.39200195662782
H         2.73082397030573    2.97034726908801    2.04152710653962
H         4.22097667374906    1.64760239298602   -0.21873182619350
H         2.66420997664651    1.21017110906578    0.45283988988828
H         3.75272272914347   -1.01279257368449    0.55958425459238
H         5.54041885749944    0.14533530996794   -0.57426578368137
H         6.00625582581920   -1.50909909653479   -0.07482775382499
H         6.72177197933421   -0.15638062277249    0.74940257319246
H         4.73078130562880   -4.74730438733418    2.30418125079005
H         3.84645636202697   -1.15735262453582    4.17144120140933
H         2.23527521782229   -1.44748847689977    2.05101151052007
H         1.47522032511655   -1.63587217889439    4.54121393876258
H         1.64852835454287   -3.46446216545757    4.31302975302827
H        -0.51180177137905   -2.98121102908832    3.81861305468301
H         3.06995287089239   -3.20922911881015    0.85002213288515
H         0.92229375379812   -4.28779773309730    2.14139240785353
H         2.27414069288686   -5.22802054454632    2.93840040012999
H         1.99513352407227   -5.37374242995742    1.22329824360707
H         6.82706245761597   -1.98702407465361    3.27330428521241
