37
 energy: -56.173957151615 gnorm: 0.125097516588 xtb: 6.4.1 (79825abcba525fcdf90b791dcacef51065a7a4e7)
C         3.31828871154858    2.82211444379781    1.66389534156454
C         3.73415855469832    1.76042709318098    0.66246561154079
O         3.90257860485705    0.54841834074654    1.40083426316597
C         4.49191585847966   -0.65575225919671    0.87812080305197
C         5.69410217478735   -0.48740832993578   -0.06070001531350
C         4.92140633464230   -1.53208926888586    2.07567188128024
O         5.25150287941124   -2.88257566502673    1.69461391907583
C         4.43087081993666   -3.74436920962662    2.50826357773181
O         4.46292761537634   -3.01089449614391    3.74757838039415
C         3.89574910687433   -1.80575013034581    3.18884905675865
C         2.50780459687346   -2.36753718736432    2.79279408732547
C         1.54325879728224   -2.32711509487617    3.98106313938303
O         0.19927242941786   -2.45269481000604    3.53522196911758
C         2.94542109875660   -3.70969492099744    2.13588056423281
C         2.03693604066548   -4.92540920887366    2.28242950182313
C         6.18389807976613   -0.93696307712692    2.72098087637232
O         6.12666272887672   -0.13709010707796    3.65280739633692
H         3.99520279648666    2.79343735780374    2.52350153898780
H         2.36942542781640    2.57747868461986    2.15306808538526
H         3.24673578265022    3.77267534138568    1.12678019742078
H         4.66698034042458    1.98850929568372    0.14040588440463
H         3.03603568538031    1.52247536780142   -0.14677322585880
H         3.75285783065724   -1.18439731522273    0.26478330825021
H         5.41429469212858    0.03925170541309   -0.97845899350536
H         6.05451884628787   -1.51350904953593   -0.18582866887998
H         6.51631258081637    0.06510189047969    0.40255392612357
H         4.91320084049842   -4.72277186476115    2.58075363606247
H         3.83918647529541   -0.99438170856396    3.91658593632733
H         1.99203563702169   -1.73601390173524    2.06218869721128
H         1.69966089491229   -1.34551708970294    4.44281062088014
H         1.70568294268620   -3.05089338963644    4.78496241422660
H         0.01035014609488   -1.64912690472376    3.02190642750995
H         2.87922111143611   -3.55830788979641    1.05122259365055
H         1.11868156131838   -4.73507979889393    1.71878970726946
H         1.85782651469482   -5.09932804306498    3.35008383191777
H         2.56297012356463   -5.83017986945563    1.96332164702333
H         6.99505608009377   -1.35170210223492    2.10184090584374
