37
 energy: -56.171002737248 gnorm: 0.132035221155 xtb: 6.4.1 (79825abcba525fcdf90b791dcacef51065a7a4e7)
C         2.56865403267285    1.58181719838640    1.94726302123287
C         4.01557255210399    1.49180002831543    2.39594215292763
O         4.93842776511004    0.96602172713420    1.43969206698985
C         4.78384318146215   -0.42123827361171    1.09013825222337
C         5.74649378824202   -0.71944861012829   -0.06716487532827
C         4.91181252618760   -1.39547277811068    2.28221548853697
O         5.24266523179749   -2.69237688893186    1.74690379198439
C         4.46553247355950   -3.61222314361422    2.53943038757478
O         4.26295920241934   -2.98626902930718    3.82085907640956
C         3.77498433823152   -1.74974594568934    3.25593957795914
C         2.56532482441870   -2.21340613686260    2.40705956271505
C         1.17433538037520   -2.13277059480862    3.04157681705974
O         0.31923389972757   -1.72208067634398    1.98281375724949
C         3.10914085164636   -3.55347544973533    1.83007662359469
C         2.19979792260289   -4.77728886872739    1.84268876318474
C         6.11492855511971   -0.98043814141119    3.14520004127966
O         6.23295626609171    0.05181880862551    3.80238217280950
H         2.47994752445413    1.56393004741139    0.85649766062762
H         2.08653258830432    2.50704077670014    2.28042724688720
H         1.90640836866302    0.78062575895792    2.28887899767119
H         4.07662933997125    1.04561659013165    3.39189232136067
H         4.39026338083782    2.51822313581046    2.46613082582968
H         3.79766144446093   -0.58280956346167    0.63936609301118
H         5.82645040450763    0.13830460305665   -0.74230258142123
H         5.46116192166130   -1.63369236993741   -0.59743283365432
H         6.71888729529779   -0.74364486686164    0.43260219183699
H         4.99799662611654   -4.56443195823640    2.60978029911720
H         3.49131825859706   -1.00244144588917    3.99903347042774
H         2.49615447269215   -1.52568217789693    1.55801613778146
H         1.19156418983600   -1.42867363422762    3.88131345894876
H         0.95608880912757   -3.09245522585506    3.51892837486917
H        -0.62180616835758   -1.91377476547748    2.13315609250896
H         3.34944946413362   -3.48284587949616    0.76187878991333
H         1.94853133494752   -4.92763614187559    2.89690277823772
H         2.77679221423539   -5.64367746528835    1.49821505313877
H         1.23767321824225   -4.60883754643670    1.34964532868833
H         6.66639890718651   -1.90442213324410    3.38068696960418
