37
 energy: -56.173586462686 gnorm: 0.128460613117 xtb: 6.4.1 (79825abcba525fcdf90b791dcacef51065a7a4e7)
C         4.41041980490651    3.31045343812916    1.79287508332746
C         3.93114898659555    2.04421231911240    1.10736638434222
O         4.50782393157067    0.89756597130652    1.73598945620541
C         4.34400492039745   -0.36407574886937    1.06368141288654
C         5.22605582937431   -0.46263302612171   -0.18821666098176
C         4.71563159576591   -1.42339041393741    2.12495576353716
O         4.96568616360605   -2.70881440855603    1.52234454464135
C         4.42424986948965   -3.66102119170464    2.45952107253741
O         4.40709817213541   -2.97623103954231    3.72667624909872
C         3.67172756524154   -1.86791319759688    3.16355593714738
C         2.40701942344356   -2.45909140860262    2.49282809847650
C         1.09258829449732   -2.43336609458644    3.27741390845620
O         0.14564350557805   -3.22174188512881    2.56846881336116
C         2.94773813057451   -3.86757961888079    2.10784082016400
C         2.39326823630326   -4.99826377351688    2.96743340266185
C         5.96877313218982   -1.16754014283526    2.97857230972969
O         6.00325220399947   -0.50300142960850    4.01229026038725
H         4.45462318385980    3.23767498225999    2.88407040337512
H         3.62919525589726    4.05842025456119    1.62050337314906
H         5.38818749206004    3.64535711189975    1.43372553336487
H         4.25366287949454    2.03671688780234    0.06302307638374
H         2.84794082815591    1.88873750628126    1.07060049590326
H         3.26601146945414   -0.47167999066559    0.89573293738255
H         4.65539785681199    0.04800649319806   -0.97022773694641
H         5.42583991427515   -1.49753893068656   -0.48401409544383
H         6.24438978989407   -0.06905355616055   -0.12502767669094
H         4.93248128870889   -4.62871934159677    2.48025583858366
H         3.41827070949549   -1.16564112087049    3.95960402634215
H         2.24089511785719   -1.90928407081431    1.56076687683838
H         0.79681658806214   -1.37849429422370    3.30858402270607
H         1.24715157677155   -2.75514075032507    4.31136841850936
H        -0.08449415564039   -2.80774662590175    1.71961639155570
H         2.70027073517753   -4.07962106450734    1.06018548882301
H         2.77772124607276   -4.99806394288601    3.99178794757202
H         2.48839473092802   -5.93958415242570    2.41328482431119
H         1.30704932993814   -4.88679167160160    2.89776211972374
H         6.80421708589008   -1.70989081162829    2.50824347948035
