37
 energy: -56.173940289811 gnorm: 0.132488532651 xtb: 6.4.1 (79825abcba525fcdf90b791dcacef51065a7a4e7)
C         3.26665902385467    2.73723059307621    1.56536599581546
C         3.17679627834529    1.28836072448813    1.12299731119768
O         4.27663949943387    0.55156121461013    1.66150466677906
C         4.62848120327593   -0.69833748201144    1.04139559655354
C         5.77965497529623   -0.35286945498796    0.08723265388678
C         5.00209166862888   -1.66855052919560    2.18404998045744
O         5.20517374232050   -2.97352579955296    1.60631337828952
C         4.36825178497484   -3.74596917452601    2.49008016531362
O         4.36860703059075   -3.09111079082013    3.77307445371522
C         3.86967913565774   -1.85930479756819    3.20741749233289
C         2.53132547751914   -2.21260704680759    2.51254974011054
C         1.40827408784467   -1.98582127177938    3.52807407587846
O         0.25495671857572   -2.08752091491835    2.70323457496116
C         2.92154392293204   -3.63020034791078    2.00011461409998
C         2.20729537688773   -4.80781290670483    2.65422515911813
C         6.29083984881571   -1.15048586306847    2.84376305899125
O         6.45010098457009   -0.19349167929245    3.59885994006305
H         3.51227045290643    3.51442055227517    0.83488077317587
H         4.10125315292515    2.80279602236329    2.27150477429589
H         2.35358409399605    3.06904100985186    2.06872922353291
H         3.32719980951366    1.26434074788754    0.04062669301631
H         2.18595478475949    0.85467040039230    1.29332022964720
H         3.83217348041192   -1.15142924780205    0.43935149757590
H         5.32276393922379    0.33825410834031   -0.62798994616956
H         6.10376642075790   -1.19521199350390   -0.53232432498458
H         6.61945469930563    0.13662403842665    0.58826583602851
H         4.76667993083073   -4.76401504904812    2.49261521385356
H         3.82413770292428   -1.12295609679975    4.01167836826463
H         2.33407346432339   -1.55783952382966    1.65756749219306
H         1.53149618723266   -0.99107889583387    3.97136959276917
H         1.59015091347083   -2.72625959598581    4.31239708351805
H        -0.55770922386565   -1.81942541000016    3.16432536702642
H         2.78195744642031   -3.68752930838393    0.91337067675432
H         1.12521133944577   -4.69658582101734    2.53662812106603
H         2.54834709521109   -4.73187311780063    3.69351849032958
H         2.56525265418114   -5.70507984052847    2.14048372037036
H         7.06760521751287   -1.87518059230074    2.55260476927333
