37
 energy: -56.179654200378 gnorm: 0.131866626811 xtb: 6.4.1 (79825abcba525fcdf90b791dcacef51065a7a4e7)
C         3.04693374630091    2.68127929865009    1.51874172123585
C         3.90266904152873    1.71990234515227    0.71471390612611
O         4.22078890538039    0.65458490530320    1.61272131935125
C         4.57234822021244   -0.61311176044386    1.02968973886781
C         5.89118559626374   -0.50479431759525    0.25257232972974
C         4.88832178326935   -1.53041093417983    2.23188778791689
O         5.18635204970593   -2.81634937790254    1.65264458120435
C         4.35573204838701   -3.73095375059793    2.39542323162143
O         4.35102004767299   -3.17426562289227    3.72395253313600
C         3.81056834447459   -1.91825513899709    3.25855756495093
C         2.44664838899015   -2.33283598491009    2.65300056399600
C         1.40191910618312   -2.39424424597029    3.77046897275981
O         0.08404978965018   -2.08063285286823    3.33952543865117
C         2.91009746003529   -3.61575944332840    1.90216547146613
C         2.18546116083064   -4.93111171659164    2.16585766218934
C         6.16879868066863   -0.99037253673263    2.89008360237365
O         6.06528321800785   -0.14505984816485    3.77670884638856
H         3.02689527228799    3.63716997488733    0.98598535577398
H         3.48155822632301    2.72630982931153    2.52300860526265
H         2.08640293197123    2.16298128568454    1.59572383701692
H         4.77729976382244    2.32496456710418    0.46243401231521
H         3.25592060320645    1.26909725828402   -0.04512508759740
H         3.84392740030545   -0.91827365782901    0.26933813386688
H         5.83609218427072    0.06353480948121   -0.68118956823430
H         6.18155474028957   -1.52524123241119   -0.01726817628451
H         6.62884335128688   -0.01517484424996    0.89447226167857
H         4.88434676836280   -4.68760846909868    2.37203415745455
H         3.79165572283157   -1.23409307463356    4.10866555313388
H         2.12933250056949   -1.51406246440192    1.99913201929409
H         1.70385611291656   -1.74119093266158    4.59724730518961
H         1.30660893788987   -3.37426926884060    4.24686964288032
H         0.15491059115078   -1.27486059383633    2.80043762923202
H         2.90189854265073   -3.40986273940568    0.82451863080831
H         1.11643796284744   -4.84651186381194    1.94874326340309
H         2.37441867972931   -5.19112577228553    3.21414269169302
H         2.58709956591952   -5.65267923225211    1.44809827069066
H         7.06868242799879   -1.54974601048587    2.58903441461081
