37
 energy: -56.177287021762 gnorm: 0.123329309054 xtb: 6.4.1 (79825abcba525fcdf90b791dcacef51065a7a4e7)
C         2.74539269463361    2.49066150068087    1.72635636078982
C         3.86442357404431    1.68665702010186    1.09048217833703
O         3.66447512773983    0.35933319878801    1.58114596848080
C         4.50632615702743   -0.65827008929015    1.00987968229359
C         5.54223157118046   -0.16546569701181   -0.00944370693455
C         5.02904835643471   -1.56605410742532    2.14532993428476
O         5.24866838634295   -2.90933481528428    1.67062309052421
C         4.41657231195804   -3.74903485432262    2.49565090370743
O         4.41559837481539   -3.08422416486897    3.77351623563091
C         3.94467098958849   -1.84505523090393    3.19999143249137
C         2.56359643259066   -2.25843595498624    2.63377252304042
C         1.45063942013989   -2.20932151825447    3.68395368895482
O         0.13121783508015   -1.92922868699607    3.23504534241997
C         2.93064701680474   -3.68497619297886    2.12910638820850
C         2.09087409852319   -4.81543020262093    2.71360461826374
C         6.40904109394129   -1.24500300840014    2.74285052345226
O         7.09171960863988   -0.25625427351184    2.48265938035311
H         2.56976975585670    2.25522659604158    2.78072103405509
H         1.79060054321071    2.25343461503048    1.24513549846420
H         2.80971819775434    3.58222530577322    1.68725117478625
H         4.82950042633549    2.09636760049414    1.39949393402743
H         3.79385991625865    1.75019959886263   -0.00031899183440
H         3.86745079663985   -1.28658248821659    0.37828078481565
H         5.07577811010327    0.33995123497153   -0.86086575777473
H         6.21797247639525   -0.94847475497104   -0.36820704881548
H         6.26074749770302    0.57036205231448    0.36230103472956
H         4.86455175113204   -4.73627986128707    2.63647197014641
H         3.86759061808899   -1.03769945202755    3.93030260137623
H         2.30655294061995   -1.61441012748219    1.78655178947729
H         1.72571288049942   -1.50616336849827    4.47837815794412
H         1.42320739048292   -3.15241503977534    4.23740901566923
H         0.21452105732939   -1.79639613108970    2.27571122807664
H         2.77310052222306   -3.75213821475040    1.04538511725411
H         1.02923393583855   -4.65831252166991    2.50067127732212
H         2.26460037280815   -4.85285713114088    3.79556218455155
H         2.42807942498901   -5.78516265124153    2.33536766732300
H         6.71044189576337   -1.86281012139636    3.60354332554679
