37
 energy: -56.183073817738 gnorm: 0.113114372634 xtb: 6.4.1 (79825abcba525fcdf90b791dcacef51065a7a4e7)
C         3.40879012784321    2.31046113848442    0.30504977302617
C         2.97889393056725    1.52845283020371    1.53250304256088
O         4.06717670869615    0.79082115305085    2.09291263032208
C         4.55351205688554   -0.33540438592539    1.34080322416130
C         5.71651094760295   -0.03163882279975    0.38679263346099
C         4.98750443630554   -1.45622945176465    2.31134894522415
O         5.27715589525872   -2.67244461176589    1.59378005217015
C         4.40591619971863   -3.62839684234362    2.23037064826911
O         4.40885906423091   -3.21654751839170    3.61069142541467
C         3.93632413558267   -1.87622962644577    3.35281247821418
C         2.57622048649550   -2.12065282473436    2.65336299121558
C         1.48596737560156   -2.30269086754297    3.71269117505878
O         0.14226024330954   -2.34500839964078    3.25062588049942
C         2.96059738942213   -3.36339710036597    1.79763404184087
C         2.07006860821395   -4.56792107787208    2.08199896575648
C         6.23670440619028   -1.07845750459728    3.12453531287211
O         6.90151155202325   -1.88106787531141    3.77662530855027
H         2.60781288085463    3.00117140954553    0.02342477345157
H         3.43235780444617    1.60647279765215   -0.53359385858918
H         4.39988304283359    2.75040647201374    0.45120536518328
H         2.18699671905678    0.85291072947323    1.19893743795705
H         2.77711640019292    2.16834772702654    2.39776855865902
H         3.71316452309605   -0.76396593692690    0.78222800776946
H         6.40037000939355    0.71588001492402    0.80091451472095
H         5.42087316896183    0.32477698382542   -0.60517818831220
H         6.31785383265336   -0.94497880681623    0.37686680374436
H         4.82339032176893   -4.63642144464339    2.16130131016508
H         3.94965426072885   -1.26724492114421    4.25839458684348
H         2.25891680195000   -1.20917297590360    2.13650094012308
H         1.72598632971761   -1.41482832123468    4.30875996217924
H         1.62725259218250   -3.19684220566902    4.32671279083567
H        -0.09458977871697   -1.67536712752537    2.58700815554108
H         2.84031726043108   -3.14916316480528    0.72832590446957
H         2.36490179345481   -5.09907798375547    2.99197266076509
H         2.13665601396336   -5.24828724390740    1.22474652239115
H         1.03794434795394   -4.22078609801664    2.18862188221414
H         6.44486659884187   -0.01365194758563    3.31473961599806
