37
 energy: -56.175102923114 gnorm: 0.124914271905 xtb: 6.4.1 (79825abcba525fcdf90b791dcacef51065a7a4e7)
C         2.89959098956504    2.36714911710106    1.55829256052164
C         3.65101986329957    1.38297478443374    2.43564357139865
O         4.82805430713154    0.87420986559936    1.80455959793012
C         4.82586961468128   -0.37420826944854    1.08900247034685
C         6.03282712712951   -0.36652081182176    0.14128382518138
C         4.95109136414854   -1.50621860336003    2.13275978715326
O         5.21906366271163   -2.78016863641460    1.51370844591874
C         4.36549899207009   -3.70655516566607    2.21469789554449
O         4.16565202339000   -3.18114882560932    3.54094196873901
C         3.77958035087029   -1.87557210033481    3.05859258660430
C         2.46750003283216   -2.20705684715101    2.30532152433993
C         1.19971775605813   -2.02682733632146    3.14449450581030
O        -0.01159442488106   -2.27760468954938    2.44401075861497
C         2.89353434709858   -3.61697735514368    1.80029688976473
C         2.22972633907390   -4.82844010905285    2.44566488457494
C         6.15548644764106   -1.07921644102863    2.98808774814973
O         6.16410359485339   -0.15639617940441    3.80030805225233
H         3.54168370185408    3.16690035570992    1.17609787940110
H         2.20164769338818    2.95408405739354    2.16480776381636
H         2.44880615164676    1.73100877812027    0.79063572305186
H         2.88121475843927    0.64319636133559    2.66984929625405
H         3.98266217043716    1.77472145292439    3.40281056394361
H         3.87769946780257   -0.49479502489144    0.55207839876495
H         5.81043656087051    0.43212814605885   -0.57331175903801
H         6.03496860103611   -1.37364865867270   -0.28781868181837
H         6.96449285589258   -0.12070659664114    0.65846469916511
H         4.77527196825092   -4.71785264054556    2.28202053740727
H         3.62536871001686   -1.18039996699539    3.88567993434672
H         2.40574090137715   -1.56829241340791    1.41831006947247
H         1.23723514182134   -1.03493745019004    3.60920289582680
H         1.30039588301429   -2.74025930017437    3.96751905878612
H         0.21967427532943   -2.83794741253184    1.68411821861594
H         2.84709292193776   -3.59149764284436    0.70440576528164
H         2.62260907198654   -4.95601754803578    3.45881519237306
H         2.65496200756475   -5.63207778903349    1.83283957520155
H         1.13824965829716   -4.78242168409669    2.38473388891617
H         7.12452521511896   -1.55474333874069    2.76863822846607
