37
 energy: -56.180492185381 gnorm: 0.127823377510 xtb: 6.4.1 (79825abcba525fcdf90b791dcacef51065a7a4e7)
C         3.25108965944123    2.60148933051557    2.07184490281279
C         4.24069430130003    1.51676055810917    1.68839293800723
O         3.56981873543423    0.41693084683781    1.06966893749328
C         4.44353408549620   -0.66519400768375    0.70061353642499
C         5.59603887578811   -0.17343314481251   -0.18532106061314
C         4.85793717443778   -1.55273014284723    1.89522933739684
O         5.05739029863373   -2.87258300838675    1.35099658537027
C         4.36244954963227   -3.69057498011447    2.31333610993092
O         4.36494888046496   -2.99981920124283    3.57736308275844
C         3.86338259933476   -1.75148677143940    3.05168230703751
C         2.53171325885832   -2.19486484711745    2.39675720671254
C         1.46421541699182   -2.14434453796214    3.49305186285429
O         0.17190749046957   -2.64423393900266    3.17541246487711
C         2.84435116323954   -3.69280074103563    2.10887425968374
C         2.28462574079873   -4.70183274683395    3.10554110816006
C         6.20160571191352   -1.12001174662948    2.50497842409556
O         6.23877771279063   -0.34836575047692    3.46130160281917
H         3.79448982634245    3.41149221148482    2.56840251405459
H         2.53292827307195    2.18545420312691    2.78643370526789
H         2.85733616618218    3.09140685175898    1.17623475915214
H         4.71146430578810    1.17914665883203    2.61527847328980
H         4.99928162509859    1.89706794126176    0.99645679211770
H         3.84031216195405   -1.33529443009698    0.07695979041722
H         5.20546855452166    0.16222351977531   -1.15110260503522
H         6.29158624262199   -1.00438698398216   -0.34078687452723
H         6.15443309821670    0.60110155247086    0.34777706131792
H         4.86356926696998   -4.65169763043948    2.45578295014782
H         3.86138664715509   -1.01034605579545    3.85282241767728
H         2.17172355356301   -1.51384731616523    1.61878158917806
H         1.30972420308141   -1.07778184679910    3.69250986199019
H         1.72619655858226   -2.61105930179548    4.44700882590507
H        -0.20489859714041   -2.07840008189105    2.48060668489906
H         2.51431538636891   -3.99489090028232    1.10707522246935
H         2.78161982106490   -4.66819112371373    4.07969280041843
H         2.27293005523399   -5.76518832072026    2.83842336433623
H         1.24209916397100   -4.42182018131622    3.28409903198958
H         7.14647379589860   -1.37689121808750    2.00044170707085
