37
 energy: -56.189890087404 gnorm: 0.109965541670 xtb: 6.4.1 (79825abcba525fcdf90b791dcacef51065a7a4e7)
C         3.08315835135713    2.25755015399614    2.46077808307320
C         4.23393176630991    1.51684920915380    1.80497939324158
O         3.66935863509521    0.48282051475033    0.99593017366554
C         4.51714516906232   -0.62608309662267    0.64640855251215
C         5.77961649166125   -0.12991383309336   -0.07119744464152
C         4.91243683126777   -1.57612611049966    1.79867587177816
O         4.91120041620252   -2.94983371109980    1.36174532385136
C         4.31571910766120   -3.68094195570253    2.45217350134809
O         4.43317375642443   -2.79687682189889    3.58334423157519
C         3.89084485016804   -1.61863591788194    2.94783608834904
C         2.52608181174395   -2.15899598011968    2.45358203194329
C         1.31512967587707   -1.98725163298442    3.37448631575840
O         0.12887183208478   -2.63642904763844    2.93607442770033
C         2.80241041903504   -3.67264817831760    2.21498089829748
C         2.13766033781522   -4.69340707235080    3.13200954800486
C         6.28841147735056   -1.26081578156603    2.40839502445566
O         6.61000262233862   -0.30537594132659    3.11201932412697
H         3.48038030675129    3.22248449763246    2.79104206838867
H         2.62330987743751    1.72423872772517    3.29958465399051
H         2.31708590445811    2.48995544087697    1.71492333260132
H         4.93077723666280    1.07380194898044    2.52110776941359
H         4.82668531546548    2.23661484261500    1.23100663745973
H         3.90536932413625   -1.18206710333008   -0.07363821698541
H         5.40062508351602    0.60493681025314   -0.78834778765326
H         6.21721351242875   -0.94871277724832   -0.65129844966688
H         6.53933560433939    0.46830031166514    0.43955534295838
H         4.88368460702008   -4.60488605207729    2.58969191912113
H         3.79784544013132   -0.78358615606440    3.64437181627918
H         2.31391726220274   -1.72557036924354    1.47085522918973
H         1.09002833302131   -0.92663291119543    3.53456225720172
H         1.63344667653821   -2.36772752795439    4.34937249114197
H        -0.30648844974641   -2.11064433392585    2.24403561929234
H         2.59222566354549   -3.91708158477323    1.16623971739107
H         2.43716640310858   -4.55504505037197    4.17520581948705
H         2.44647207848149   -5.71897877543080    2.89737846749865
H         1.04961667519897   -4.57802823009017    3.13259241977807
H         6.91238577205188   -2.16838824150068    2.39141360900742
