37
 energy: -56.171344554110 gnorm: 0.121366614654 xtb: 6.4.1 (79825abcba525fcdf90b791dcacef51065a7a4e7)
C         3.05807931308133    2.70019631599296    1.81725474600974
C         3.19472784524701    1.35881949587726    1.12081761960069
O         4.46152997369413    0.80844616259442    1.48799654872971
C         4.73246691049624   -0.50486565641020    0.96609632957156
C         5.93426808680389   -0.55845663681167    0.01332243741862
C         5.01257812154546   -1.47889497343935    2.13201305122744
O         5.16730130732200   -2.82506763773596    1.64021806775540
C         4.42352949897202   -3.69710383816920    2.51457910227708
O         4.36882034320691   -2.99449324614715    3.77086698107519
C         3.93295580078842   -1.74353577855409    3.19521920312063
C         2.60317551660526   -2.18750154930031    2.53686293221076
C         1.35065666837549   -1.99107007833163    3.39510362453020
O         0.27585515872499   -2.25701892950739    2.50352250394950
C         2.94678539519551   -3.64520834461983    2.11088863257674
C         2.05800208896262   -4.73234681136487    2.70500739592661
C         6.37166019142006   -1.20449772733882    2.79690879481007
O         6.49574873743750   -0.59753036222288    3.85877788239661
H         2.07825838155255    3.11884262271018    1.56696674869777
H         3.82524366093386    3.40057309599975    1.47025418416075
H         3.15324467553340    2.43634416690969    2.87484829663313
H         3.03981036754929    1.58502615276226    0.06272714194282
H         2.33348954162354    0.73527819341648    1.38221557261900
H         3.80029378948664   -0.92924508208668    0.57518633280978
H         5.74850213718496    0.07734769154711   -0.85799176139059
H         5.95656643797198   -1.63109591583753   -0.20436497335901
H         6.88753245648052   -0.30108530872412    0.48337429579100
H         5.09761910309208   -4.55748512836113    2.49186234768339
H         3.92364916796893   -0.91634290142351    3.90710707074247
H         2.39554900205053   -1.66233224515196    1.59893332698734
H         1.23547516032064   -0.95554836827192    3.73515508678980
H         1.20025871240612   -2.75261482220448    4.16576614626396
H        -0.59212566897518   -2.06209208826947    2.89533707901264
H         2.91049243036052   -3.66807538055256    1.01455688666309
H         1.05550749461998   -4.31967408210033    2.55731786599217
H         2.27931254739600   -5.06255950361684    3.72686599954079
H         2.08013450129377   -5.66329658148045    2.13055608680274
H         7.16730243828118   -1.83677322317982    2.37205450873625
