37
 energy: -56.182175996985 gnorm: 0.122477133250 xtb: 6.4.1 (79825abcba525fcdf90b791dcacef51065a7a4e7)
C         2.84428209183543    2.49089647730902    1.50509713938132
C         4.09590717544291    1.63289075506695    1.48928279307368
O         3.61955886182447    0.28678135365624    1.42927815468842
C         4.52916170098446   -0.73540237062051    0.98392696652627
C         5.64607458401870   -0.43624591593686   -0.02502652622784
C         5.01957179141817   -1.59989626963683    2.16659574051704
O         5.28841358017737   -2.92497903996655    1.66673361730455
C         4.36423695190620   -3.74242846600129    2.41227024046385
O         4.34907688077628   -3.17987957336450    3.73825021426390
C         3.94231475347255   -1.89255523963629    3.22484638922990
C         2.57105692198763   -2.24550008644163    2.59720310245353
C         1.48415110316704   -2.07192176457788    3.66137986929206
O         0.15665343801877   -2.10529154680636    3.15395462939536
C         2.90901510970914   -3.62064126919787    1.94974503252017
C         2.09201754827423   -4.79111085586272    2.48574769856197
C         6.31011075847235   -1.05193210539474    2.79804542206563
O         6.47899524616802    0.09136971151972    3.21722591198452
H         3.11384810342263    3.54589738946714    1.61584509364545
H         2.29682234211616    2.12829572870552    2.38161677988266
H         2.27843842627528    2.31889200182608    0.58454625724277
H         4.68292839101416    1.88851746329365    2.37516394160008
H         4.66556728433999    1.95525582111064    0.61154012973552
H         3.91249502928114   -1.44381500422882    0.41848111399718
H         5.25292474602005    0.17691200209535   -0.84198131856086
H         6.01995160275297   -1.41067802906955   -0.35538703962703
H         6.34908520494144    0.21025138322957    0.50762628691259
H         4.70933116580582   -4.77884423660832    2.45610117622517
H         4.11985604031479   -1.19537873816944    4.04554306216236
H         2.27720800310916   -1.48667338917405    1.86476991440250
H         1.59120699312167   -1.07558909046844    4.10530242161105
H         1.52172189987274   -2.89681141391634    4.37876133796098
H        -0.10375320044739   -1.25621607552190    2.75877735507797
H         3.01644937213562   -3.53670059166080    0.86107831505797
H         1.01209478459477   -4.69487893833536    2.33873534380302
H         2.24513149428488   -4.88425518125894    3.56745653490199
H         2.44739589495699   -5.73940929244565    2.07151596025857
H         7.10595993617825   -1.78507234476531    2.59201259533215
