37
 energy: -56.174121327262 gnorm: 0.136061783930 xtb: 6.4.1 (79825abcba525fcdf90b791dcacef51065a7a4e7)
C         2.20696395337933    1.87330656937551    1.45760548152715
C         3.22389409406854    1.12847422135333    0.61258055456326
O         4.16638122734418    0.62266469002003    1.56041678712995
C         4.95601737209216   -0.46088305577294    1.03794802116066
C         6.26969434457870   -0.12402062782443    0.31978883135716
C         5.06365527433471   -1.56758846668502    2.11040985304726
O         5.12613541030387   -2.86379262655310    1.48276870496268
C         4.23697274104813   -3.63603732059986    2.31414030905067
O         4.49495254011830   -3.11278158707897    3.63116871979974
C         4.07758181625009   -1.77743396706082    3.27215441732633
C         2.64861831171491   -1.90147139852670    2.68774682630985
C         1.64368666085535   -1.80286494881969    3.83855308536678
O         0.37622852479805   -2.05473691909380    3.24613907398097
C         2.78754665733874   -3.27736082812271    1.97216443092389
C         1.80202690343801   -4.34825420873850    2.42683036538974
C         6.43446336966120   -1.55007945127859    2.80687440941986
O         6.72161823577015   -0.85568235957350    3.77987393178429
H         1.58145750513650    2.66407617246263    1.03171466653685
H         2.74081269379909    2.38343023509024    2.26646735394128
H         1.55702867045015    1.18200565754429    2.00245931261530
H         3.82159119769849    1.74409488214841   -0.06454108222397
H         2.76865269318259    0.35437431364882   -0.01382878490746
H         4.34112921893923   -0.93431102889173    0.26358779581580
H         6.12769373389198    0.58903290982021   -0.49834015085317
H         6.76053843516989   -1.05875689342631    0.03034069879899
H         6.96863461370175    0.40087639700227    0.97695495541608
H         4.50114630054054   -4.68448424254664    2.15246099882554
H         4.30143744293589   -1.08198188836854    4.08292816915601
H         2.49432706687377   -1.03931105814880    2.03086229999563
H         1.75409455707146   -0.74812239927304    4.11520313765998
H         1.86293394520759   -2.54731360007142    4.60940813526792
H        -0.28324344255759   -1.86475670197389    3.93455035710488
H         2.76438083233301   -3.23215798387434    0.87617016550218
H         0.80450751124132   -3.94571372071762    2.22677384845694
H         2.06528809017844   -4.81298783635463    3.38439496085946
H         1.82446463443884   -5.17961175071275    1.71585018666645
H         7.15902671932863   -2.27999145352889    2.41246792387339
