37
 energy: -56.176048639484 gnorm: 0.137430640960 xtb: 6.4.1 (79825abcba525fcdf90b791dcacef51065a7a4e7)
C         3.28373950548811    2.47688703304840    0.84329784870680
C         3.50311262319733    1.73223740451782    2.14727700155979
O         4.72136077783232    0.98498445807274    2.14908732553606
C         4.65724482067581   -0.22946603507125    1.37994900744791
C         5.69597374354734   -0.23852778484190    0.25037551773189
C         4.91329143553634   -1.44530762823787    2.29795041018264
O         5.20881592744801   -2.59088225069459    1.47435677721505
C         4.42940606696330   -3.60393320721194    2.14098927971639
O         4.29072337843686   -3.17462612868752    3.50897192532629
C         3.73570500666197   -1.88067893610195    3.18663959347526
C         2.44274582229960   -2.31943334796265    2.45547250556272
C         1.33935051906504   -2.52720356248051    3.49629728740399
O         0.08426293061272   -2.38879839981708    2.84327115701330
C         2.97551715459586   -3.54855956030906    1.66185142357970
C         2.19364941112356   -4.80744280152219    2.02056962215860
C         6.23070199510586   -1.17400705887817    3.04314146614059
O         6.29606104547708   -0.60152537797632    4.12912776229479
H         4.27515921182870    2.82416307459095    0.53598011974816
H         2.72078756118446    3.41554751828784    0.80483018248989
H         2.77389207088511    1.90674957824270    0.06088018800784
H         2.65579410453969    1.13151079299914    2.48772259644232
H         3.63537840509091    2.49625900661789    2.92034932638215
H         3.68398541476438   -0.32046393660609    0.88362173521226
H         5.66746532772637    0.67010925853956   -0.35914114118762
H         5.60631057805624   -1.21218362102419   -0.24196062104632
H         6.70400131295316   -0.36772564428625    0.65421960478945
H         4.95586882908297   -4.56169255192364    2.16749988339811
H         3.56666004348564   -1.28433907553111    4.08492772974998
H         2.13746886441890   -1.49633292950712    1.80130494638468
H         1.30179803645041   -1.68541277575231    4.19714325848754
H         1.37014651971930   -3.48128833991346    4.03039887933094
H        -0.02599403172649   -3.07156575493034    2.16020601154056
H         2.97016760425197   -3.44633287504984    0.56946666373735
H         2.18425270299949   -4.97633397089776    3.10153856972362
H         2.55918580633091   -5.71593740704031    1.52738157788702
H         1.16030089608765   -4.67407455787206    1.68657054054176
H         7.00151623016031   -1.85212541276186    2.64399114807859
