37
 energy: -56.182684760236 gnorm: 0.124933466259 xtb: 6.4.1 (79825abcba525fcdf90b791dcacef51065a7a4e7)
C         3.26220685931209    2.81190966355691    1.39522601262359
C         3.54744831684920    1.50431091424398    0.67981557763411
O         4.09342165249505    0.62204325497056    1.66268673076310
C         4.62779258408026   -0.56198487131923    1.04373624793972
C         5.94481073532117   -0.23971438520040    0.32500051059321
C         4.93565418086712   -1.54141995580735    2.19806953013577
O         5.20988560732897   -2.85980849438980    1.68364638294538
C         4.34194434766880   -3.71338337462715    2.45581135816588
O         4.35985067459885   -3.11385657043902    3.76545289079472
C         3.86234996161098   -1.85826763639699    3.25336665116795
C         2.48912282516377   -2.22046888918174    2.63537663002360
C         1.41738602819176   -2.30495120469010    3.72542656086379
O         0.15599365638387   -2.23754986759436    3.07336037392874
C         2.90623089289486   -3.55306772224710    1.94644110799492
C         2.12204103797063   -4.84763092463619    2.13065646066632
C         6.23940257664678   -1.15184690081196    2.91427984810947
O         6.15743085769554   -0.53313699065272    3.97345499654126
H         2.96183876065967    3.49262958861393    0.59250734493454
H         4.24029562490440    3.04928456699293    1.82705200056609
H         2.49425501311435    2.61258771518813    2.14868420263433
H         4.24817059194623    1.72741364427253   -0.12884863117275
H         2.64227488896401    1.08621733866626    0.22735243968107
H         3.87395144762695   -0.92133135025706    0.33349060175208
H         5.86230970256609    0.33957995542762   -0.59996230067566
H         6.39698398905840   -1.17546309460597   -0.01902527417275
H         6.60488686193991    0.34713729505704    0.96983096902486
H         4.68910004966183   -4.74998893768567    2.44577963431025
H         3.83607463469875   -1.12136961053494    4.05798451197211
H         2.15195647001158   -1.44746101031848    1.93723540160661
H         1.63613178789673   -1.41249738240107    4.32282380056687
H         1.61425547090645   -3.16528761280434    4.37161101921525
H        -0.53724823469301   -2.04386368287739    3.72666519874303
H         2.89874131395924   -3.43639204858088    0.85551761551162
H         1.07250350861986   -4.54088940798445    2.09209475130548
H         2.33627768519019   -5.40499877053576    3.05025283372471
H         2.29247757723332   -5.66636932248992    1.42512797567794
H         7.19873080593721   -1.53107836618854    2.52802489606907
