37
 energy: -56.172363849221 gnorm: 0.136153980327 xtb: 6.4.1 (79825abcba525fcdf90b791dcacef51065a7a4e7)
C         3.02307344518062    2.83503963352170    1.50868112833497
C         3.61430748244780    1.59392462725074    0.86597968171447
O         4.32295340204810    0.65531824775980    1.67798823352106
C         4.69183601380916   -0.60943975218600    1.09929351330780
C         5.89047431721833   -0.42601114352450    0.15876360902977
C         4.98283288891937   -1.54521737529460    2.29352910138442
O         5.27204651750872   -2.84631048369106    1.74444366881802
C         4.35094154425058   -3.71579969663730    2.43270604063234
O         4.24628078413022   -3.13294272764351    3.74580843872348
C         3.86198731257984   -1.80950917501706    3.31327507203693
C         2.53649004977707   -2.20381999842345    2.61582941940523
C         1.39734670797307   -2.30829655964274    3.63337704069268
O         0.18991448631688   -2.51844857751616    2.91310793217666
C         2.89948049332898   -3.57098103340431    1.96503006018184
C         1.88939461923596   -4.68570238661272    2.21383904514335
C         6.29890429389363   -1.10060440694742    2.95289240867803
O         6.49529966682364   -0.19245791260414    3.75792175434584
H         2.82021092329045    3.63591306120014    0.79076300875401
H         3.75472584749919    3.13973353406209    2.26454127144167
H         2.11907982211717    2.59912600819196    2.07817109133564
H         4.34257555061292    1.91335147220425    0.11610204791954
H         2.89560975731292    1.00117706459441    0.29066412644120
H         3.89019463646835   -1.06825381183386    0.50877160204211
H         5.75416508664079    0.27159563982095   -0.67352791472715
H         6.07245789150330   -1.40798248925156   -0.28962721909254
H         6.78846711182406   -0.13114475007622    0.70882224779250
H         4.90438040495005   -4.64732544642407    2.57808173596096
H         4.04311571729619   -1.20593708291324    4.20434880459553
H         2.32802506264685   -1.45233387587315    1.84743200668355
H         1.41265915960148   -1.39204717988460    4.23459218164299
H         1.61134789568518   -3.17495697603863    4.26551146663349
H        -0.62079128433616   -2.44755147331745    3.44474278473501
H         2.95954468799708   -3.50104280420129    0.87173943085608
H         0.90669637307302   -4.42012402068855    1.81274215171771
H         1.80550984502508   -5.16471330911581    3.19655247237561
H         2.19019008133832   -5.51186146975582    1.56258262966124
H         7.11489510227146   -1.73826166932190    2.57756270986027
