37
 energy: -56.178407641293 gnorm: 0.128748863984 xtb: 6.4.1 (79825abcba525fcdf90b791dcacef51065a7a4e7)
C         3.06815672429395    2.60170155735613    1.68193831236211
C         3.11769919179375    1.13666448789700    1.28925371981905
O         4.47057861802271    0.67605450466821    1.29788492497787
C         4.77452756351807   -0.68349325645318    0.93758017227253
C         6.00090228258936   -0.65071426222682    0.01567630985939
C         5.05452553593592   -1.56320479140467    2.17623506996335
O         5.17526985411068   -2.92548066017219    1.72059522463475
C         4.28434217521442   -3.72410192944336    2.52471138601831
O         4.30123175435193   -3.01226935620148    3.77687874846341
C         3.96604442975475   -1.70851209367560    3.25332424935822
C         2.62123664839581   -2.06678226082539    2.57362672363331
C         1.44896767365867   -2.02523794010722    3.55750954625203
O         0.16086266105670   -2.10233799985731    2.96111619749630
C         2.88612828105144   -3.47001685459871    1.95298506881951
C         2.04567589078061   -4.68835836276369    2.31913623832680
C         6.40316631768434   -1.09021498181998    2.74362643564491
O         6.39709447951433   -0.17771459492725    3.56744649751038
H         3.47958264290088    3.18310213184363    0.85087877545656
H         3.54529949626783    2.84943463557607    2.63610876643157
H         1.99612994945771    2.80699172799101    1.75805046600209
H         2.65914438294944    0.96159012764780    0.31262646818238
H         2.57070548414955    0.51155544927201    2.00262643763595
H         3.92093679033299   -1.14456429362385    0.42703973489051
H         5.74333251845779   -0.06203019932068   -0.87035611291602
H         6.54290133029567   -1.58924096099668   -0.13874098549777
H         6.70776126476970   -0.03115965913665    0.57460760169850
H         4.79928963164586   -4.68743154906807    2.56936535692903
H         3.92362812530140   -1.01360524282062    4.09381477582314
H         2.41104477460958   -1.37560749115678    1.75099659254565
H         1.41880988740131   -1.03143701992934    4.01865728254306
H         1.47834122107217   -2.74792129848051    4.37809264785677
H        -0.49571376320028   -2.13441292974074    3.67720589192795
H         2.90973976914392   -3.52557476419496    0.85747642054251
H         1.01029298374758   -4.43856112339255    2.06875659138158
H         2.13487150473291   -4.92770178491446    3.38542542137035
H         2.36687110451143   -5.55433674509814    1.73256424374820
H         7.35237783809240   -1.56543273602233    2.44954205295965
