37
 energy: -56.169844276154 gnorm: 0.124710023673 xtb: 6.4.1 (79825abcba525fcdf90b791dcacef51065a7a4e7)
C         3.53134033775652    2.74725790265386    1.34682674373439
C         4.38920814198861    1.91739794715513    2.28404847820687
O         5.14647165257436    0.91189066963100    1.60727232948985
C         4.53557627960909   -0.35863697833049    1.31893034110263
C         5.02294292523252   -0.82475991073000   -0.05953964618753
C         4.81126906237110   -1.39854300396560    2.42759914402038
O         5.23903439314206   -2.62893228095475    1.81023244506226
C         4.46953131495403   -3.67178462479684    2.44148114301347
O         4.23264050581492   -3.15409659092648    3.76465756768190
C         3.62763808241191   -1.95253663961413    3.23885466187949
C         2.46659729178083   -2.41580671025957    2.32440426742400
C         1.14346588806515   -2.45902304379866    3.09344370332624
O         0.02896208923295   -2.36102596570649    2.21644777076540
C         3.12123168485082   -3.69023657279300    1.71472120850253
C         2.54584186404063   -5.09643907919948    1.84240860903755
C         5.89844151743563   -0.90322774645189    3.39569182030090
O         5.69656722584324    0.01206356567840    4.19121806956128
H         4.17481233947550    2.97288258500065    0.49067537779253
H         3.16227457505125    3.67911493534146    1.78831411759153
H         2.67200722766502    2.23631641081936    0.90223263041229
H         3.74940644182815    1.41526674583415    3.01428295960750
H         5.04959469631417    2.60491843066198    2.82262926658124
H         3.45081679109911   -0.20006443650594    1.32156971507094
H         4.89258643791414   -0.13980224961099   -0.90321304328432
H         4.63295565315759   -1.70947513930558   -0.57298777783805
H         6.06140464921452   -1.13539788696731    0.08538464109250
H         5.03840779921892   -4.60450269100039    2.40166399854984
H         3.30909197203687   -1.31954470020936    4.06889605678237
H         2.36628212030068   -1.70566224421605    1.49720701442777
H         1.10725475582369   -1.49325822028777    3.61035189984241
H         1.11725311149644   -3.32397211217586    3.76252270164296
H        -0.82530231596148   -2.41244059744521    2.67741926679661
H         3.35287395559343   -3.54041666423486    0.65279876300782
H         2.97271066791300   -5.50542254223846    2.76307247769889
H         2.84398273379513   -5.69007579083029    0.97010060936559
H         1.45636328754279   -5.01014665071545    1.89476979002163
H         6.86114764888728   -1.39853256308437    3.19273811857024
