37
 energy: -56.180988733842 gnorm: 0.127731791753 xtb: 6.4.1 (79825abcba525fcdf90b791dcacef51065a7a4e7)
C         3.53136829805569    2.64744437539275    0.81151605887136
C         3.04982142687848    1.36944262892958    1.47319075596265
O         4.06286011001493    0.54779994186402    2.05729238963823
C         4.63418355767143   -0.52305646003109    1.28435599221496
C         5.82721766204999   -0.10265256364163    0.41550254615066
C         4.99247226040910   -1.60488787637082    2.32734551909147
O         5.30277927469557   -2.87995852017150    1.73078304163056
C         4.36996446662767   -3.78972796804910    2.34748956717104
O         4.28436489285881   -3.31371573658685    3.70432376351459
C         3.87391058022622   -1.98555574107836    3.31219989293336
C         2.53227339841723   -2.32686161968448    2.61766829169083
C         1.44482905564739   -2.36127713435200    3.69481556428291
O         0.31052541808118   -1.86325387573751    2.99755516545845
C         2.98921111781503   -3.52772372091408    1.73814053154066
C         1.96445965372286   -4.65278105932589    1.83255101185908
C         6.31205447286233   -1.21592413271059    3.01429108834394
O         6.56832046987550   -0.18678649568972    3.63604404955383
H         4.47203674720423    3.04185909779373    1.20842632869882
H         2.69347315073473    3.35211381327479    0.78234648172415
H         3.81965894543316    2.52656986598019   -0.23703359376899
H         2.48966248118401    0.79794211820621    0.72865502427880
H         2.43394149668402    1.63503084138833    2.33864952162314
H         3.85264562319362   -0.92875324500736    0.63131402835836
H         5.56775836667880    0.19150777818269   -0.60630718235034
H         6.57519290398952   -0.89486676043517    0.30887357502823
H         6.28698575755458    0.74464045764037    0.93184501231879
H         4.79861687226105   -4.79541323131702    2.34268608341501
H         3.85203257322142   -1.41851638010077    4.24445881804806
H         2.22514258193310   -1.53371735383795    1.92830892060460
H         1.64505237459923   -1.71051385558179    4.55366640467821
H         1.21540948061389   -3.36461848365226    4.06517142096337
H        -0.44421009791540   -2.09046194755673    3.56646345854905
H         3.20801372428530   -3.21303078744562    0.71009522632199
H         1.75983639749696   -5.07442641591801    2.82121217829118
H         2.32325492560995   -5.43891585771036    1.15766451532077
H         1.02856110652234   -4.25625190109544    1.42756933042159
H         7.02625570778865   -2.04562712270568    2.89251431156907
