37
 energy: -56.173124255838 gnorm: 0.133840686707 xtb: 6.4.1 (79825abcba525fcdf90b791dcacef51065a7a4e7)
C         3.51049612411317    2.87792207906885    1.89092678491335
C         4.04159230448077    1.82955468230976    0.93079558723266
O         4.60912563563247    0.82284207441863    1.77160142375476
C         4.46330531884703   -0.45590062294826    1.12807353555068
C         5.43058338351419   -0.57311558966341   -0.05751067396141
C         4.82774738180855   -1.48899720261540    2.21731666431133
O         5.26641863553036   -2.70676683476515    1.58281921095651
C         4.44101071226364   -3.70460175360488    2.21620540193593
O         4.40316264273939   -3.29002412225103    3.59519302638204
C         3.87274099659977   -1.97485584626482    3.32091558112477
C         2.52116618249036   -2.29684005676951    2.63649914741368
C         1.49265464586455   -2.54392972779929    3.74333091525287
O         0.14187837397306   -2.46548649148269    3.30733312090744
C         2.97040161555740   -3.54353840983142    1.81896526331057
C         2.08299256119611   -4.78335202565050    1.80670795977179
C         5.97500643459152   -0.85611496388001    3.02214024108722
O         5.70373603606157   -0.31946771327347    4.09442537314374
H         2.90994498447204    3.63625057801193    1.37883881791300
H         4.34719004964998    3.47164382948860    2.27422290966083
H         3.05083973267941    2.37408674549312    2.74652276400330
H         4.78062011496220    2.07176739562659    0.16274921136425
H         3.22404154680080    1.40506555572062    0.33894779884068
H         3.40013948555315   -0.58174226216635    0.89207031976343
H         5.04581155155566    0.15743204231060   -0.77597803974496
H         5.32560980956558   -1.56234643134667   -0.51450402484989
H         6.47706156930362   -0.37452947897434    0.19017595362408
H         4.82948738382322   -4.72483176666722    2.15802132166471
H         3.91737968810273   -1.38809982999141    4.24006939935791
H         2.18994670203140   -1.47146344734752    1.99800827468692
H         1.58398889232608   -1.74668303428823    4.48983124925254
H         1.63060847501437   -3.53230904411425    4.19117656534088
H         0.01133538217692   -3.26818139340513    2.77484342841857
H         2.90462934726154   -3.26947473722974    0.75861321099301
H         1.61318031310254   -4.98015236386620    2.77503252058817
H         2.65724851129294   -5.68754819366219    1.57245781300582
H         1.22083351830514   -4.59916163960583    1.15870541186831
H         7.00339442685011   -1.03413538438758    2.66993731334628
