37
 energy: -56.176582485503 gnorm: 0.111729064417 xtb: 6.4.1 (79825abcba525fcdf90b791dcacef51065a7a4e7)
C         2.86771330615273    2.07305681902433    1.36286191602134
C         3.79377003500170    1.62985006960680    2.48043785359389
O         4.89123378312756    0.93654811999025    1.88258793037802
C         4.72270191514647   -0.37262065022240    1.30965797020601
C         5.70611460509485   -0.54841577280967    0.14476668185686
C         4.99536164737827   -1.48471002354360    2.34670719864384
O         5.29820684977210   -2.72778226044290    1.68259982978617
C         4.40008129471454   -3.68266946875270    2.28235958877888
O         4.19693745907179   -3.19245210609232    3.62151361086043
C         3.78929483088089   -1.86559104937814    3.22212648263930
C         2.54768506249321   -2.18217836283896    2.35205070720111
C         1.18723896885606   -2.27395187882450    3.04827619501808
O         0.16991680012767   -1.96292169856292    2.10532349145796
C         2.99446971969041   -3.52137756670227    1.69527073492477
C         2.20395488440612   -4.73614454165596    2.16877936679769
C         6.18309746623601   -1.09187973473712    3.24082813890816
O         6.34899542931386   -0.00240422926052    3.78570821245874
H         3.53894680996067    2.32898610131755    0.53708733707951
H         2.34254410123794    3.01648998477383    1.54619038482582
H         2.15936797001018    1.29490194446840    1.06302796907518
H         3.31899044990503    0.91348595359657    3.15581266504692
H         4.21031068454978    2.44683839061395    3.07867529228757
H         3.71699588888381   -0.40689063753361    0.87464509854406
H         5.15780210609456   -0.25824186296093   -0.75695227297805
H         5.94603438499929   -1.60357042477599   -0.02114655491653
H         6.66933369558538   -0.07061395813038    0.34430645674243
H         4.86415553181491   -4.66799845784363    2.37686197693959
H         3.71803781717989   -1.19832776191418    4.08282454370123
H         2.45548946565008   -1.43405619633836    1.55805025856121
H         1.01928799564583   -1.45198694189703    3.75352303606546
H         0.97508935589961   -3.22877722441513    3.53796157043645
H        -0.34566253673467   -2.67444612628777    1.68961110679447
H         3.03468307316132   -3.45430525769021    0.60089074010328
H         2.27086881676071   -4.85431933429278    3.25444213046968
H         2.55183968444839   -5.64921148643159    1.67128698182766
H         1.13881264327780   -4.71115241248187    1.91978332722717
H         6.97188487739900   -1.85058536311555    3.36532809109688
