37
 energy: -56.176097702470 gnorm: 0.123579071704 xtb: 6.4.1 (79825abcba525fcdf90b791dcacef51065a7a4e7)
C         2.77376005281180    2.52212648625961    1.41350771055676
C         3.96164279382578    1.68339632651849    0.97939300535011
O         4.26566409072678    0.62268891546743    1.88768241352028
C         4.64292711233507   -0.56412190218594    1.16676126380457
C         5.93261165817526   -0.37794756661376    0.35618797895021
C         4.97866089099046   -1.65144167083596    2.21154629956089
O         5.13042912544027   -2.91657954577009    1.53747289330599
C         4.22950548635112   -3.77194697933650    2.26879635610084
O         4.43384812620898   -3.31707711163351    3.62018506982436
C         3.95092922943884   -1.99308756139691    3.30382472761899
C         2.55375436850164   -2.21980720430212    2.67505225774468
C         1.58073310457704   -2.19803465599920    3.85688196455557
O         0.21313910309057   -2.41225333105265    3.53339939864188
C         2.78452357685019   -3.50935224198122    1.83347628350798
C         1.73654708814764   -4.57970339602907    2.11786440042487
C         6.28602160213859   -1.24270463731683    2.91027821088954
O         6.45218465572735   -0.09729442652329    3.32476415562345
H         1.83120286528784    1.99667587844241    1.23062666719882
H         2.77736456279938    3.39795015303308    0.75593788713057
H         2.75523462148402    2.85967872071331    2.45412955188761
H         4.75021462130644    2.42505009858309    0.82830199658774
H         3.86965086404088    1.23898153853918   -0.01704918795740
H         3.82683049516676   -0.93050619570537    0.53303884105234
H         5.80408407653763    0.10165051219722   -0.61921496685135
H         6.33111934205358   -1.34472710064894    0.03219878114519
H         6.61739099999145    0.25986442400005    0.92202791381991
H         4.61378423974419   -4.77927029750542    2.08769312156196
H         3.86839366440233   -1.20529393067052    4.05461636792696
H         2.38713059970570   -1.43321362191632    1.93199736742844
H         1.69910861666724   -1.21044296877153    4.31716110664146
H         1.88590070016746   -3.06781258188887    4.44582149402200
H        -0.05568459041382   -1.78987479879025    2.83677565822583
H         2.78223987545706   -3.30980664474045    0.75460663870303
H         1.54774998821888   -4.77130276329326    3.17840752710913
H         2.10519264498808   -5.50598289641205    1.66144300436379
H         0.79928906187276   -4.23649105516951    1.66964089941242
H         7.09820172631963   -1.98550334951483    2.95425053069066
