37
 energy: -56.180129679183 gnorm: 0.121314200604 xtb: 6.4.1 (79825abcba525fcdf90b791dcacef51065a7a4e7)
C         3.61889387714932    2.70091591748235    1.24993697206854
C         4.59614122046319    2.09058486997302    2.23759729126570
O         5.31063599592882    0.95048451243484    1.75573922474021
C         4.49271489515493   -0.18709860939519    1.42789121880621
C         4.72612994414723   -0.47912591362888   -0.06046815389472
C         4.75722800979913   -1.42190906149070    2.31774129874185
O         5.11710022424627   -2.62822072708830    1.61539768747692
C         4.46468308788228   -3.65256983494416    2.39206469977637
O         4.27105734147642   -3.10069930809560    3.70844685009760
C         3.60759929971048   -1.91797941519834    3.21121456664634
C         2.46691446328869   -2.49079330146716    2.33395944050606
C         1.11249164930837   -2.50661215232763    3.04758013027125
O         0.13133427465484   -2.57325190622750    2.02106499558988
C         3.06118239964526   -3.82896582928630    1.80427003398783
C         2.41577196697723   -5.08846150481179    2.37163142063168
C         5.91718842884766   -0.93633884325578    3.20272586179446
O         5.79949228006116   -0.34044409099543    4.27157120754294
H         3.98775120583421    2.56874430521140    0.22796201885044
H         3.55741253795902    3.77955599136334    1.42947470088358
H         2.59362031233666    2.33237954927438    1.35080114878122
H         4.16037700673315    1.79359719378899    3.19500640304558
H         5.37978642808628    2.83954299969576    2.39195393362270
H         3.45743818781718    0.16312376820904    1.51392419862081
H         4.08450187260959    0.28109955003954   -0.51688379089774
H         4.36322935956211   -1.50132745565762   -0.20827619876794
H         5.76424249630213   -0.30693025469114   -0.35807980627268
H         5.17194623541888   -4.48593995866677    2.37104346303791
H         3.35575989511331   -1.44033446568164    4.15966130789672
H         2.35276272833061   -1.88419417390798    1.42973026764518
H         0.98483434288695   -1.53010059921382    3.52855392694880
H         1.04258575777324   -3.27416691266194    3.82376536808227
H         0.36899440978469   -3.32284756393020    1.44963707987022
H         3.05767548047757   -3.87795067190825    0.70819906637486
H         2.37224766141884   -5.08449413296546    3.46488175115692
H         2.98958332949411   -5.96294671870867    2.04264831669325
H         1.40377554214581   -5.22547334382332    1.97889407938037
H         6.83297610896193   -1.41849472699609    2.82565996488018
