37
 energy: -56.182669829051 gnorm: 0.109707720555 xtb: 6.4.1 (79825abcba525fcdf90b791dcacef51065a7a4e7)
C         3.31568259961064    2.02935330173527    2.30493949474746
C         4.00189204602489    1.49194683687861    1.06264317209121
O         3.49818232321458    0.18772347786894    0.76633800723721
C         4.50879036484593   -0.82245128084165    0.59665318921153
C         5.75815140526075   -0.41802209288053   -0.19739351178346
C         4.89102075296182   -1.47123609790669    1.94555474270623
O         5.33008382634135   -2.82544639061119    1.71901442777446
C         4.49634741929703   -3.57604450648555    2.62435245266999
O         4.41316559139871   -2.67736499890416    3.74701442416033
C         3.80916736556739   -1.57600509138803    3.03396788706600
C         2.48403584444980   -2.17593037535158    2.50201833261972
C         1.46026448396114   -2.03178474708144    3.63121279973350
O         0.22388908695523   -2.69920699395649    3.41495509494499
C         3.04213393513889   -3.58451847356763    2.14307952065457
C         2.16619645182274   -4.66992210565616    2.75904657899216
C         6.04003987877818   -0.77663692188311    2.69506880283028
O         5.96592078953187    0.27796848162666    3.32251371616276
H         3.49785399585425    1.35021280986800    3.14371219600332
H         2.23167461990045    2.06713513286537    2.15335653520790
H         3.75465458530474    2.95917587304560    2.67898775625816
H         5.07677360629442    1.39166092443783    1.23380597388503
H         3.69120126774422    2.06743101978727    0.18448984819764
H         3.97335834720332   -1.58190164860479    0.01492907266762
H         5.43004180554407    0.28186242302796   -0.97228080704730
H         6.25414722355820   -1.24618514731602   -0.71370169309552
H         6.53461352686131   -0.11482449535337    0.51047618122027
H         4.94019309504705   -4.56152244763143    2.78867853448365
H         3.75162313990915   -0.71928391947953    3.70764178064707
H         2.05007970143612   -1.65006829998145    1.64541185045758
H         1.37451556545150   -0.95005195943628    3.78518779182691
H         1.81655212509113   -2.57057564944623    4.51396653457043
H        -0.30391384103602   -2.52152762223631    2.61823685030504
H         3.04969947037368   -3.76339850691752    1.06061562688995
H         1.20537016833417   -4.58174416409263    2.24315521644075
H         2.05216141939212   -4.59832281767895    3.84720249891346
H         2.50703497466946   -5.69127643012105    2.56458302403329
H         6.97487439103226   -1.35885400526347    2.71575123577992
