37
 energy: -56.165863487750 gnorm: 0.152932931897 xtb: 6.4.1 (79825abcba525fcdf90b791dcacef51065a7a4e7)
C         3.99980004813195    3.01212329631050    1.82196477166002
C         3.62934872637317    1.54349513223434    1.72769706948885
O         4.69605372056006    0.88982493204498    1.03677411716566
C         4.47941622400068   -0.52513161151555    0.89000644187419
C         5.34163845911669   -0.86267013440032   -0.33376506098351
C         4.74244704050996   -1.38452716343358    2.14651399413413
O         5.09360804562390   -2.68470219050659    1.63249721756883
C         4.49516845028124   -3.62528215733205    2.54646124174316
O         4.31990233085372   -2.93804515565757    3.80021602801334
C         3.67561279746206   -1.80938288510650    3.16993409221657
C         2.41061264511055   -2.35903483884621    2.46529835535202
C         1.22262935185564   -2.27168648304996    3.42708410405368
O        -0.07430261875425   -2.52309153644700    2.90210132059446
C         3.03298449728959   -3.73995194517398    2.10453226232590
C         2.55253479078776   -5.03648897791308    2.74713846029579
C         6.03872106576633   -0.84106759845009    2.77005998329431
O         5.97345916084238    0.07372824576143    3.58875574699496
H         4.13187038339360    3.33240600374006    0.78372863096340
H         4.91615435588721    3.09929708583053    2.41540699624438
H         3.09887460417112    3.42966237672540    2.28150038732413
H         2.79263814019784    1.42478770494371    1.03448117222022
H         3.23730104800079    1.19567333765199    2.68904127172797
H         3.44190680746115   -0.79030269372766    0.65524326137838
H         4.91136532855976   -0.32741823341593   -1.18600622207584
H         5.24080257149350   -1.94720367226820   -0.44357931096645
H         6.40464984512729   -0.62002514541019   -0.24990860210936
H         5.12184047605486   -4.52071951506027    2.57181718320767
H         3.61815045585379   -1.06964618002843    3.97031317730069
H         2.16478567206183   -1.72504551680281    1.60724815547701
H         1.19095724733048   -1.23374241401752    3.77762080538439
H         1.24341427649887   -2.92229347265367    4.30615702075445
H        -0.03786252853120   -3.17176673714726    2.17905329009051
H         2.93330241380539   -3.88948090807553    1.02217929301365
H         1.50366854970735   -5.20579078198165    2.48575196772448
H         2.60583997373321   -4.91209190773348    3.83520908204182
H         3.07491372599826   -5.90887707718817    2.34314479848522
H         7.01747794814248   -1.28964574553905    2.53739574144439
