37
 energy: -56.174604958489 gnorm: 0.125163620043 xtb: 6.4.1 (79825abcba525fcdf90b791dcacef51065a7a4e7)
C         2.65582565926748    2.49022203182067    1.55400704413358
C         3.72819925532020    1.66818401008190    0.86316869323554
O         4.15177712812422    0.62238380570343    1.74032462115524
C         4.65740058199082   -0.55193770790800    1.08010609843264
C         5.75632874179969   -0.36364827197057    0.02564883965947
C         5.04575886743985   -1.53154103304615    2.20975752621987
O         5.10335480642443   -2.91054416768458    1.79380628642594
C         4.29724201613144   -3.66774367667721    2.71845861163965
O         4.34392310409590   -2.89953428186760    3.93607479449655
C         3.94817741680557   -1.67638912617824    3.27763411464385
C         2.59132162338424   -2.04502461581921    2.62809241025173
C         1.41755329722619   -1.99169915208079    3.60961683387404
O         0.16477759729658   -2.42182157552244    3.09348534687114
C         2.86084199003090   -3.51972083525484    2.20730649352400
C         1.82873848516578   -4.58798429573632    2.55133911857152
C         6.37985912287274   -1.08636030240348    2.83142854779515
O         7.43532192613792   -1.69200978491726    2.65661358319165
H         2.55799134554703    3.36981546987662    0.91003367446907
H         3.04869034502733    2.55768441206259    2.57409739674076
H         1.72544372678248    1.91448450980193    1.56371715047207
H         4.59853401165240    2.28945843153953    0.63676232784645
H         3.45963860682743    1.31392035808171   -0.13744936775718
H         3.78808882080713   -0.98879949760267    0.57482985411966
H         6.61659490111331   -0.07349948212929    0.63695921896254
H         5.48813475726945    0.45841804582156   -0.64570724279726
H         5.98837113811385   -1.22839831263417   -0.60225672265038
H         4.69794285539907   -4.67283809897816    2.87464070223506
H         3.73351090744799   -0.94304029655329    4.05688810045754
H         2.37439371028774   -1.45512707133578    1.73166244778630
H         1.31220100984280   -0.95120689319643    3.93746397433457
H         1.74029317162402   -2.61756166238172    4.44665074208305
H         0.07337200771805   -2.08390131809455    2.18664425290567
H         2.95526473376263   -3.65866602525915    1.12307314331134
H         1.76328671851674   -4.68585067177910    3.63910960270612
H         2.10693619310445   -5.57563922791032    2.16487111500746
H         0.81367516069879   -4.43620433867929    2.17218095359619
H         6.37034733119739   -0.21929357592634    3.51071114908420
