37
 energy: -56.178335441391 gnorm: 0.129087641914 xtb: 6.4.1 (79825abcba525fcdf90b791dcacef51065a7a4e7)
C         3.58273142774642    2.70581264394555    1.61680689784188
C         4.61713714306235    1.87760486399978    2.35644596733048
O         5.26302948316337    0.95565632551096    1.47590477977719
C         4.50744432713724   -0.24540375683404    1.23690614430033
C         4.95468198392760   -0.63874788352585   -0.17739050842061
C         4.73339251245444   -1.31983926578260    2.32368714587538
O         5.28364393630457   -2.56388779679067    1.84666614608393
C         4.49443686172233   -3.58922678035661    2.48226273363682
O         4.15469820520482   -2.99324745584825    3.74887248602422
C         3.52867374801076   -1.85597301036430    3.11567183330099
C         2.45013848715082   -2.38741878082411    2.13936179315388
C         1.05986230061520   -2.31090594489038    2.77594941341792
O         0.06966189782118   -2.91319598907406    1.95278853372440
C         3.12432667413872   -3.75348679333439    1.81724467448272
C         2.50527262250115   -5.05853754142637    2.30550439163817
C         5.89897968457640   -0.88319372610308    3.22658886106487
O         5.77198739329264   -0.57345970219647    4.40951367256733
H         4.06279628078843    3.25640061081180    0.80173113664854
H         3.09108019910660    3.41194012913007    2.29440648771310
H         2.78963756325859    2.11242271018172    1.15197463964690
H         4.16979051681687    1.44015930371958    3.25268628854399
H         5.42525640530570    2.51684935136509    2.72681579271002
H         3.45872267621557    0.04327054161029    1.10013886127074
H         4.62231485446067    0.15016441518671   -0.85936854453070
H         4.29724491809369   -1.49585250901863   -0.35512123196424
H         6.03699620771006   -0.79329126479158   -0.20216906708466
H         5.02998804795419   -4.53674140919119    2.58507211832558
H         3.20868389307633   -1.15439874342579    3.88801829150603
H         2.46167194179056   -1.77962142148502    1.22882740716460
H         0.79409145043430   -1.24781899859955    2.79641880422226
H         1.13046983493442   -2.69690074145194    3.79698480134513
H        -0.62344957662752   -3.08888273042399    2.61129935846776
H         3.19676610881797   -3.94117996585842    0.73867748486136
H         2.59901365349423   -5.21903179051864    3.38372542882774
H         2.94512460782505   -5.88556322698005    1.73561624629153
H         1.42466042245489   -5.12857274670456    2.14890308472898
H         6.84601837377372   -0.71436401374195    2.68999375538161
