37
 energy: -56.175784486140 gnorm: 0.106237771649 xtb: 6.4.1 (79825abcba525fcdf90b791dcacef51065a7a4e7)
C         2.88885162010619    2.60290831606528    2.06003937137971
C         4.04944404025638    1.65395656764011    1.82444422133775
O         3.54229799723586    0.35426730398097    1.51439664133753
C         4.38249527998330   -0.64048599584902    0.90193523214475
C         5.49238095863186   -0.35058781686283   -0.11742189594907
C         5.00278957407878   -1.57613440452542    1.96323360793717
O         5.09137991996117   -2.91050676425403    1.42510298464653
C         4.41213015355360   -3.75370977057583    2.37682737160168
O         4.46992621102515   -3.02975500837885    3.62079806801027
C         3.96812294800289   -1.78726357428017    3.08167713021070
C         2.62707796203848   -2.24872165173809    2.45917491241450
C         1.46140840057081   -1.96315872806466    3.40977166737323
O         0.18435780661962   -2.06029384792636    2.79288389649447
C         2.90775504020638   -3.73482743944368    2.08884945585728
C         2.14498164446678   -4.72776147313608    2.95893088149311
C         6.39607875690781   -1.27925342116634    2.54210422011048
O         6.72253368278585   -0.31826156909698    3.23585860084934
H         3.30524773491747    3.58330093221439    1.80824091392773
H         2.59630145646491    2.47342837184213    3.10747791647462
H         2.18750475473195    2.39385567572633    1.24665871731169
H         4.74562701916862    1.67248770811465    2.66688720959228
H         4.59104596439691    1.99345625490295    0.93547213056914
H         3.57770561201597   -1.17428913638836    0.38306814904754
H         5.21008925123868    0.41242609828276   -0.84958698302183
H         5.75893696617267   -1.31406717766651   -0.56362303257264
H         6.33974672657702    0.15307005981843    0.35607753094791
H         4.89989463307299   -4.72837183290391    2.46220004934804
H         3.87470189535279   -0.96724514353388    3.79579287510917
H         2.31831002447066   -1.76980684558555    1.52433455566518
H         1.51426749352964   -0.98658550302112    3.90446111440486
H         1.41485902376015   -2.68293296822631    4.23211519166664
H         0.22508166310042   -2.31884891420573    1.85672328137977
H         2.69954926143775   -3.87804709446393    1.02117821964168
H         2.37867615374589   -4.52846377600536    4.00906120560299
H         2.46853328456318   -5.75912041998883    2.77501021231483
H         1.06597499731386   -4.65714202476987    2.79187047849511
H         7.09478866091317   -2.12433914719241    2.43743983809144
