37
 energy: -56.173240869468 gnorm: 0.131933945827 xtb: 6.4.1 (79825abcba525fcdf90b791dcacef51065a7a4e7)
C         2.89230852695492    2.67774497158965    1.29275815167190
C         3.64691083824130    1.52138574134011    0.66315673496814
O         4.01502244392990    0.49895234933466    1.59140379663257
C         4.63054863895781   -0.67644400711861    1.03449670376627
C         5.89394871137309   -0.42745265968935    0.19975140495509
C         4.97344572798859   -1.60396020596635    2.22138022797684
O         5.11331094181583   -2.93503042757913    1.68596245247468
C         4.27934459344481   -3.76229173635831    2.52159976616165
O         4.44748150384295   -3.12430745297383    3.80207624142414
C         3.97350041974149   -1.83080855022243    3.36797328742700
C         2.57851260899792   -2.10657297451627    2.75411891416335
C         1.55733374239350   -2.19920939507936    3.89103496232839
O         0.28816906182331   -2.27511739401319    3.25518674132365
C         2.87243410646018   -3.44117214862348    2.00787086369248
C         1.97402960868915   -4.66551089236400    2.14442457259916
C         6.35179504986186   -1.18909078197293    2.76223213662050
O         6.42797100751147   -0.22348679312343    3.51931831260615
H         2.90748181254315    3.64295421548888    0.77691054390385
H         3.29778924570496    2.95174255904887    2.27254836799291
H         1.84476935284426    2.39570127453543    1.43520656694951
H         4.58507152497120    1.89436522900419    0.24427111326745
H         3.05589490065723    1.10311673988256   -0.15819292535809
H         3.83843618883701   -1.19801823983820    0.48461177186984
H         5.65965862860945    0.12338543907225   -0.71656191927758
H         6.40417760252613   -1.38899927848701    0.08341302426056
H         6.52755934180097    0.20891305747896    0.82383309671816
H         4.75629027574433   -4.73753673502945    2.39280216812194
H         3.94555957795803   -1.07890097754947    4.15852582351929
H         2.26263738684716   -1.37809640097327    2.00034956112094
H         1.59876335954312   -1.39272536354685    4.63203029510753
H         1.74136459637008   -3.15765107721361    4.38501153963876
H        -0.39387416571273   -2.12865555599455    3.93214450819533
H         3.04351667728799   -3.23113196580805    0.94466944676737
H         0.95612133908526   -4.26453545582701    2.15813022480044
H         2.26754608170343   -5.32750267742804    2.96772810340975
H         2.00981049256098   -5.24343314058459    1.21605114072483
H         7.16097791875783   -1.92772435142595    2.87608987607984
