37
 energy: -56.173793450480 gnorm: 0.130133255580 xtb: 6.4.1 (79825abcba525fcdf90b791dcacef51065a7a4e7)
C         2.67628330489096    2.33864135905162    1.79238895786888
C         3.45389015377000    1.50340329064671    0.79204190555962
O         4.08847359375710    0.48524909503231    1.56869156837483
C         4.68360423222029   -0.63693101694039    0.89259547633868
C         5.98505266042507   -0.17101033402744    0.22616764308459
C         5.06148555338085   -1.61638066936146    2.02592741459612
O         5.18113849482502   -2.95274742870324    1.49887006229995
C         4.33404421406832   -3.75959888971932    2.34123153400660
O         4.46782890036378   -3.10332397967365    3.61650360971048
C         4.01726978906601   -1.81738409109368    3.13733980873685
C         2.64742190672719   -2.17989692362739    2.51207552309428
C         1.56713025610944   -1.88394681067015    3.55579452816104
O         0.29782170213961   -1.92598415691481    2.91709849465312
C         2.83547095861652   -3.65250239639718    2.04249951503391
C         1.98953884197099   -4.70383316517566    2.75234836053576
C         6.37794552677837   -1.31627260086105    2.76169405297518
O         6.38930084863368   -0.48498612011164    3.66734693976453
H         2.30868481916282    3.35149432352797    1.60014407696339
H         3.21467283842153    2.43515778956022    2.74123006665462
H         1.84948887156533    1.71770119651259    2.15019169763131
H         4.32833306097327    2.07679180821071    0.47376600397307
H         2.84745585025041    0.99461916430528    0.03557630026887
H         4.02192264936605   -1.08805193369353    0.14391487905491
H         5.75417007024826    0.51455040059380   -0.59519967567694
H         6.53640772861181   -0.96076694853254   -0.29415160119801
H         6.59699804938908    0.32281599078599    0.98614140202146
H         4.74432433031327   -4.77272169288822    2.32070791998985
H         4.12583725600721   -1.07113625980464    3.92629246092735
H         2.48621429582064   -1.57458066298399    1.61417361154101
H         1.75359658915769   -1.01853965100157    4.20194291824408
H         1.67277734682426   -2.70650070746479    4.26905075891277
H        -0.32786855427217   -1.65692686437856    3.61065867865022
H         2.49146377809789   -3.71559518549318    1.00256599252585
H         0.97337946768335   -4.32530853475529    2.60658958236977
H         2.20655899559280   -4.85155161732393    3.81691177256544
H         2.04997177375017   -5.68756527127627    2.27719509282764
H         7.28966036540950   -1.84989004096877    2.44968680308521
