37
 energy: -56.169561708792 gnorm: 0.127117867165 xtb: 6.4.1 (79825abcba525fcdf90b791dcacef51065a7a4e7)
C         3.66427234993212    3.03818571505901    1.30317045791203
C         3.43850789086285    1.56298266297305    1.57848051969751
O         4.67745709325967    0.89920409407864    1.31978825028975
C         4.58153859773015   -0.50859895430829    1.03789320836603
C         5.53437510185078   -0.74162857746522   -0.14226607989791
C         4.85032910385270   -1.48527795416356    2.20425807786932
O         5.15626844844775   -2.77698177407032    1.64222180450297
C         4.41898722982046   -3.64313722551368    2.52785265725307
O         4.50114547529283   -2.98753166537510    3.80783130864921
C         3.83280742551358   -1.80695238536478    3.31204941967619
C         2.52980532626386   -2.26250490425455    2.60954557100178
C         1.32882184653487   -2.30493222868084    3.55812582946365
O         0.16449822772626   -2.62073581593534    2.80615336951340
C         2.95289490287824   -3.66601745345854    2.08458965715687
C         2.15918726899786   -4.92890550910549    2.40069862508188
C         6.09918415315678   -1.00811641451448    2.96397002127467
O         6.19125127633724   -0.05153893963259    3.73068802593642
H         3.49230164426811    3.22231345756633    0.23805031420043
H         4.71927448550882    3.11234230357738    1.58768663643120
H         3.08406533268502    3.74201513941163    1.90745720992319
H         2.77762560241022    1.17800699018717    0.79761390433673
H         2.94592853569564    1.17837023970853    2.47753720537291
H         3.55417961878779   -0.66519757104516    0.68880058978219
H         5.11669355406555   -0.16203314317525   -0.97145594088435
H         5.77356556735466   -1.79371544744710   -0.32757980609094
H         6.55375391176467   -0.35109082558129   -0.07708313565112
H         4.84196571527832   -4.65083900753133    2.49965445472009
H         3.67858752048361   -1.05481082114840    4.08768999602391
H         2.25957043855191   -1.60004277175906    1.78084746317771
H         1.24414902881417   -1.31166343478487    4.01359768984212
H         1.53544049626221   -3.12747340338961    4.24894087413126
H        -0.62438888951777   -2.65542029214336    3.37303956278122
H         2.96240743783372   -3.65307811064432    0.98753657206647
H         1.15899526694607   -4.75499668572660    1.99268137835805
H         2.08330359474852   -5.19953848431470    3.46051616174961
H         2.50844236961614   -5.78851846571422    1.82083823895610
H         6.90991853858488   -1.73020722198454    2.77791978462779
