37
 energy: -56.179885439560 gnorm: 0.109443539310 xtb: 6.4.1 (79825abcba525fcdf90b791dcacef51065a7a4e7)
C         3.19055194160006    2.52597908392341    1.15445023388560
C         3.48494042849504    1.60872262979524    2.32703937058730
O         4.72247078865896    0.93425523685934    2.09011922912789
C         4.63512102364371   -0.24912376352985    1.27614209699762
C         5.65388482066176   -0.31400227815965    0.13032917161319
C         4.92724617005184   -1.44393308177880    2.21083499668137
O         5.17461827349853   -2.64061241273706    1.44614681028873
C         4.48961747644312   -3.66544868016137    2.19356596684739
O         4.33875162505558   -3.16963543966391    3.53756101863893
C         3.77531506249305   -1.90733931725904    3.11876441491773
C         2.56276048130906   -2.25349171609266    2.21946240302485
C         1.30354720100361   -2.20535306838264    3.08896252789251
O         0.01368277343253   -2.27035698407616    2.49493541431037
C         3.02515150723769   -3.66236657142047    1.74438646732953
C         2.22810639701218   -4.77421724762178    2.41765468582285
C         6.18811496987622   -1.08929491951952    3.01639437260736
O         6.33390126187614   -0.96055273045989    4.23029103363992
H         4.01340468832639    3.24620273320646    1.20080886349561
H         2.18616218378938    2.94400028874994    1.28069463013727
H         3.34823884327604    1.97522135971191    0.22225964645241
H         2.74417727460473    0.82524213881302    2.50635085501324
H         3.64476631416842    2.21017985958779    3.22791058903363
H         3.59138013887101   -0.33536043283855    0.95206887081136
H         5.36998189992811    0.41215058256789   -0.63781516339851
H         5.63306535749601   -1.28479753137864   -0.37520338655324
H         6.65666666465558   -0.09194789561925    0.50585831606248
H         5.05694335089064   -4.59898764816599    2.15096125163177
H         3.63170628553097   -1.27260237608550    3.99489485191859
H         2.42646112012144   -1.53930278398840    1.40093924212543
H         1.27628565585730   -1.22955302916865    3.58723763673270
H         1.32330485255187   -2.97684990390847    3.86413537003133
H        -0.26835227664031   -3.19637223622561    2.40629098889861
H         3.09033723923796   -3.62352757460896    0.64984284896517
H         2.33581619916680   -4.79784817848440    3.50620719628058
H         2.56383187383386   -5.77593617042225    2.12429252898728
H         1.16728662382438   -4.64658750876269    2.18202003927222
H         6.99194621522558   -1.00768830952211    2.26771837922226
