37
 energy: -56.175124971420 gnorm: 0.121583601357 xtb: 6.4.1 (79825abcba525fcdf90b791dcacef51065a7a4e7)
C         2.33615989565051    2.07216376195675    1.33374895896989
C         3.74578332248786    1.60563137938264    1.02022289082905
O         4.03185717482960    0.44067796594498    1.79711677016435
C         4.74524283908504   -0.61395901180897    1.12674647127283
C         5.98220317596034   -0.19758965796381    0.31956506625306
C         5.10158195888896   -1.63642877135505    2.22862451199030
O         5.19814863846247   -2.93229117505718    1.60460695480475
C         4.18900226941310   -3.73186150456676    2.25303718065804
O         4.25020345897984   -3.26056922011756    3.61283568579388
C         4.03325558184875   -1.86473140276476    3.31148328412190
C         2.61961546416681   -1.90768370001802    2.68011101683350
C         1.59259715158750   -2.08869843204997    3.80101822010422
O         0.25932074138740   -2.22245022876580    3.32633048544960
C         2.80855244635032   -3.20816364119862    1.84495491075183
C         1.82090944169246   -4.34153512006077    2.09953952269388
C         6.40778267958956   -1.45958274766616    3.02048902321530
O         7.13199282956813   -0.53036633061433    3.37184324875284
H         1.55638420483517    1.32167824993799    1.17041115867568
H         2.10986699712421    2.91694873022837    0.67450087040555
H         2.27986912115431    2.53553022069019    2.32334554027390
H         4.51118534601209    2.38548986352446    1.04677137494896
H         3.74061103340113    1.25709864000039   -0.01773772539668
H         4.04332039091577   -1.07782408843848    0.42390273911051
H         5.91217895899960    0.77746749138793   -0.17267950966400
H         6.17022317425935   -0.97477832129929   -0.42814229620548
H         6.87087684598721   -0.16205544224561    0.95588113205794
H         4.35229099010263   -4.81086403388881    2.31829936184003
H         4.32293843258998   -1.26227211609588    4.17418003013443
H         2.30107153031490   -1.05537311185527    2.07124326179474
H         1.70457740080165   -1.35239516031741    4.60508594932656
H         1.77121463672660   -3.00029783950634    4.37857600048761
H         0.04604862871319   -1.52494227971251    2.68375479365912
H         2.73919383478680   -2.97155673637190    0.77584783344757
H         1.98139191679953   -4.60681346260579    3.14881506855154
H         2.08053267406901   -5.14867297350245    1.40431436657562
H         0.75424458173045   -4.12939265401339    1.97965090914895
H         6.62827314584683   -2.46145657035619    3.42167832143499
