37
 energy: -56.180915407449 gnorm: 0.119899078632 xtb: 6.4.1 (79825abcba525fcdf90b791dcacef51065a7a4e7)
C         2.89829856781439    2.55027069148841    1.98218763814288
C         3.75484525945263    1.70695293250455    1.05583339316869
O         4.12309940396074    0.49934592663259    1.72560425744362
C         4.69287220347212   -0.54524802710895    0.91643367171760
C         5.91115337587792   -0.10823126208100    0.09194384984055
C         4.95521626347346   -1.62362004529598    1.99107156012028
O         4.96283993914382   -2.96118334542492    1.45362510014779
C         4.25918100294310   -3.73092429600533    2.44887071308460
O         4.46000733041069   -2.98131083783306    3.66240374524522
C         3.89845823494107   -1.77601040815799    3.09835024889092
C         2.57789682044999   -2.19389731904623    2.40528294488341
C         1.37316586636646   -1.83604488067653    3.27965749059969
O         0.26696948885357   -2.57676969357778    2.78115944874419
C         2.75967724169588   -3.71672981256863    2.13626987765529
C         2.09490564058275   -4.78123747698595    3.00211343647467
C         6.33795099078274   -1.41115927396512    2.62934216270045
O         6.60909410141043   -0.59782386266603    3.51044387437404
H         2.32094679611520    3.24866062637488    1.36828675058369
H         3.53807941053986    3.18978537511010    2.59958508146427
H         2.21957363920057    1.89568372241694    2.53718934218666
H         4.64199058468022    2.21285773441788    0.66627230716547
H         3.23334413066337    1.43691812675604    0.13172201478556
H         3.91005469914117   -0.98082098792800    0.28450946790703
H         5.59144602631058    0.49766136205390   -0.76165201418206
H         6.52909947317979   -0.99163980616057   -0.09824553242769
H         6.48371528213855    0.48295773216633    0.81206200133666
H         4.67892203394849   -4.73867088949399    2.50746323704183
H         3.93879270858085   -0.93291070946449    3.79021370131908
H         2.50926090365655   -1.65587814654917    1.45425823594086
H         1.12849171656954   -0.76960631064921    3.21601530180604
H         1.52778083405623   -2.10119036789819    4.32955403359393
H        -0.45501861899431   -2.42808672438444    3.41482529107312
H         2.55643010398644   -4.01967365545395    1.10152401332860
H         1.00457027626882   -4.70814866398009    2.94795434936292
H         2.31122657771594   -4.54091630795072    4.04980840082333
H         2.42577464830177   -5.79907455919028    2.77477008936405
H         7.18663891260552   -1.91086283947956    2.13604184568406
