37
 energy: -56.171191448926 gnorm: 0.132161860880 xtb: 6.4.1 (79825abcba525fcdf90b791dcacef51065a7a4e7)
C         2.89349242315471    2.47275450822115    1.78348244800363
C         3.53935898623049    1.47495923019358    0.83995172182737
O         4.34875520178729    0.53405247289993    1.54853555384544
C         4.68599528273317   -0.69746605017937    0.88505543576364
C         5.90708051229580   -0.52598372118737   -0.02846567761816
C         5.06753959872200   -1.58781615481308    2.08849128344603
O         5.23558283363610   -2.93698901977086    1.60945428556019
C         4.36835209387183   -3.71267768745548    2.46055286315487
O         4.35927135173056   -3.06592479412375    3.74762015058097
C         3.99619041958555   -1.79133658935806    3.17330316561431
C         2.60321500232338   -2.10983749966708    2.57578257399774
C         1.52279684314485   -1.99379378937972    3.65429837910062
O         0.27629611296860   -2.08029584692428    2.97636232453246
C         2.92321409274026   -3.51727341040651    1.99169722836449
C         2.00692049048280   -4.66496189851727    2.40157536426715
C         6.26052939552943   -1.05137368149285    2.89687800464836
O         6.14321359013576   -0.37505525230240    3.91678177066645
H         2.02754262448820    2.80975464026112    1.20510564433137
H         3.61567164645137    3.24944136443445    2.05678238826984
H         2.63381174612436    1.92562120164370    2.69473960794566
H         4.10779868939709    1.96541250447426    0.04556124716990
H         2.72000514841928    0.94871260321507    0.33936422773360
H         3.81641483855116   -1.12690532094933    0.37391258979563
H         5.60646769064649   -0.00397611025866   -0.94229528393884
H         6.25886581175926   -1.52011808735294   -0.32237723688375
H         6.74437148783916    0.04858230083300    0.37739072287205
H         4.85657939706530   -4.67886406050055    2.61315299264687
H         4.05689155399073   -1.09288073973733    4.00972040911471
H         2.23389220695543   -1.36458299066253    1.86386972786723
H         1.70094332678036   -1.00983155287390    4.10295096325721
H         1.52891178609179   -2.76064187390832    4.43429664109008
H        -0.46028032458178   -2.21145624682614    3.59697327601566
H         2.67997994991252   -3.48779244412262    0.92223409286296
H         0.96903053467046   -4.43926133760393    2.13899188331621
H         1.99216166759122   -4.72303215342489    3.49639214035977
H         2.54387217412547   -5.52970460027788    2.00025930735986
H         7.09985240797388   -1.66802272583160    2.53826833163312
