37
 energy: -56.179640943313 gnorm: 0.125808686951 xtb: 6.4.1 (79825abcba525fcdf90b791dcacef51065a7a4e7)
C         3.77783566226318    2.69271705890362    2.19745660028928
C         3.43708956038524    1.36560955296316    1.54502497583028
O         4.56350413558712    0.74493517477925    0.92174949368276
C         4.44292350622364   -0.67072526029521    0.69384501790611
C         5.62657706109903   -0.94214181014759   -0.24438389091067
C         4.84013766947049   -1.43317675404331    1.97737367706576
O         5.13907221460456   -2.80353422928223    1.64459609274005
C         4.47538248122089   -3.62555490437035    2.62538597802367
O         4.34546277752635   -2.76660870579495    3.77440567521910
C         3.76783261845153   -1.65336194390432    3.05797850433013
C         2.49717746754972   -2.29140980318703    2.44382492990167
C         1.38770158969657   -2.21469590855228    3.49603409543634
O         0.03099984723969   -2.32255032385908    3.08545917498029
C         3.03103793646962   -3.71863687989733    2.12375178257028
C         2.27358722490355   -4.90997887436533    2.69973405910767
C         6.02966459820539   -0.74235249605348    2.66459402194214
O         5.82329225206663    0.16896928619488    3.46351603083219
H         4.16062910067754    3.42518588318614    1.47987979377199
H         4.59310665284322    2.55384644612630    2.91545821906483
H         3.00389856817792    3.20898303807564    2.77336399913126
H         2.70942607037600    1.52079770973796    0.74430853505947
H         2.94175449366614    0.66967484102771    2.22999366851335
H         3.49909939769678   -0.86685524725290    0.17174894849603
H         5.28892279265831   -0.69740542898696   -1.25633165028105
H         5.93847304529904   -1.99119250423040   -0.26994905282197
H         6.45527919114292   -0.28237457314559    0.02739117802977
H         5.02679190910832   -4.53129401430178    2.89138054994402
H         3.64392321108328   -0.73865479117655    3.64028107664531
H         2.22187532251085   -1.77324483718147    1.51952124525092
H         1.42934708995973   -1.26595511323416    4.04317534338754
H         1.55314976029488   -3.01323808650524    4.22503886869198
H         0.04402989786960   -2.72671960887685    2.20150031946088
H         3.12920419842624   -3.84432253271776    1.03823353031209
H         1.19874043660857   -4.79606604208795    2.86954169286716
H         2.72542984568585   -5.00613523144742    3.69412128397149
H         2.56497256891915   -5.84670474592524    2.21518184743892
H         7.01153089086608   -1.13154287213154    2.35188092443112
