37
 energy: -56.172578319208 gnorm: 0.126754655816 xtb: 6.4.1 (79825abcba525fcdf90b791dcacef51065a7a4e7)
C         3.45267224410200    3.04054367349518    1.35081831434634
C         3.72588742504746    1.66923039939599    0.76103646083453
O         4.21537740608510    0.71614082101503    1.70683698186782
C         4.48827726378892   -0.52388095202670    1.02975037411534
C         5.47356036285928   -0.47477484230567   -0.14574183956062
C         4.89073701388441   -1.54149183610325    2.12018673114293
O         5.18738406375618   -2.84410275945016    1.57871863102036
C         4.38833126314342   -3.67171394597051    2.44746785301400
O         4.40632181619373   -3.03288955299141    3.73839531369065
C         3.86206271975744   -1.79295580205165    3.23581279281552
C         2.47990051835765   -2.30207587980163    2.75698236055134
C         1.44675100145355   -2.43016523092701    3.87955132012373
O         0.18194227551287   -2.66076209323282    3.27298067852336
C         2.91830185679462   -3.60305233687023    2.02234266590557
C         2.30993311714706   -4.92471209796253    2.47828770270224
C         6.16540385955915   -1.06482562982919    2.83607641411840
O         6.27686554156850   -0.47006042076167    3.90621843483552
H         4.26069151114357    3.47670470308818    1.94649128594163
H         2.55747439928592    3.29394531846356    1.92864751441499
H         3.32668888353880    3.78805142807999    0.56180698982174
H         4.42774236028978    1.75224102037025   -0.07277000687432
H         2.78473032318978    1.25398296297589    0.38599387502879
H         3.52987873456712   -0.99204421149278    0.77647052267350
H         4.97657182571826   -0.29739767502516   -1.10463927702978
H         5.86064072433491   -1.49437720980523   -0.24071472198148
H         6.24001869209109    0.25621690972033    0.12646102477781
H         4.86410271778337   -4.65319463502280    2.52167025006080
H         3.90705790002610   -1.04931480307905    4.03336686746354
H         1.93191254328977   -1.68438220964219    2.03810322113628
H         1.28594887040416   -1.51808180635663    4.46560037066263
H         1.66671647523724   -3.26246174786914    4.55437601164629
H        -0.18187849749251   -1.78531852823598    3.05818109202472
H         2.76835819141263   -3.43286372469505    0.94887347139125
H         1.21897080428473   -4.92798960021215    2.39524024668219
H         2.65314820132878   -5.10231870159150    3.50438372762662
H         2.54333966508037   -5.70984583496182    1.75286504983740
H         7.01063127434558   -1.36633043596070    2.19732330804725
