37
 energy: -56.179791177264 gnorm: 0.133724875941 xtb: 6.4.1 (79825abcba525fcdf90b791dcacef51065a7a4e7)
C         2.93173350022830    2.22631091315133    2.08521072335599
C         3.98695915375885    1.44418225065929    1.32510359886228
O         3.45777533000181    0.15968358606714    0.98962414307635
C         4.39515505672864   -0.89696429168821    0.71505337381327
C         5.59457319404095   -0.41916640679585   -0.11445337752221
C         4.80096852042545   -1.54256842937441    2.05858153818688
O         5.28911023998051   -2.85407163470023    1.71266329900085
C         4.39939275408317   -3.76153539266793    2.39315076316048
O         4.42660191399644   -3.13227649802098    3.68860700818191
C         3.81206577725092   -1.93223261657754    3.17045367513636
C         2.52085668773597   -2.35542114811482    2.42712011474185
C         1.28006507042781   -2.24801491741648    3.31755032680735
O         1.17339142855132   -0.88655004006045    3.71236433002872
C         2.93677757627122   -3.77399088076755    1.93814086977081
C         2.32635498396667   -5.01220879185264    2.58543029091168
C         5.91622837338454   -0.87565153019677    2.88071388489003
O         5.95920432502728    0.27649228309982    3.30743512044524
H         3.42804479319775    3.11574247513919    2.48589072851418
H         2.57386865336541    1.67488260962704    2.96118888406529
H         2.12913358892129    2.49787698496954    1.39292193147840
H         4.83000429666514    1.31018105318051    2.00777694931566
H         4.40401308393701    1.95681554777595    0.45209891167534
H         3.89437592267837   -1.60668025301285    0.04618959176925
H         5.30663517541048    0.04793705984271   -1.06147534593952
H         6.30889492350310   -1.20356170961527   -0.38446913412758
H         6.11231751196391    0.43567319042107    0.32949683588887
H         5.02401851075422   -4.65215670598093    2.50180230706263
H         3.71507139049748   -1.20404290910383    3.97757873118845
H         2.27921106887962   -1.70809616024471    1.57788441148415
H         1.32093584378426   -2.83977051257838    4.23915864407978
H         0.37677579751728   -2.47788044575136    2.74508111279588
H         1.76755821861269   -0.29203187261420    3.22408180259409
H         2.90020036521658   -3.79644888218594    0.84181011333155
H         2.68960960358017   -5.08124450019638    3.61518101058285
H         2.65392268984473   -5.90879610118239    2.04594502931492
H         1.23445064100519   -4.95562789794881    2.62660232450106
H         6.63488528645466   -1.60082084791994    3.29421329436222
