37
 energy: -56.173987092653 gnorm: 0.118130044897 xtb: 6.4.1 (79825abcba525fcdf90b791dcacef51065a7a4e7)
C         3.47938743055224    2.71409090040091    1.19523149561950
C         2.93820069978667    1.35623684803547    1.60307773030643
O         3.83745623818186    0.46590461837325    2.26728161076116
C         4.63599999458663   -0.35450880298507    1.39560261717898
C         5.86936939372233    0.27636247066105    0.73546819078028
C         5.00466833770520   -1.56749465235598    2.27838579401993
O         5.07882752949380   -2.74656323306818    1.45238332333920
C         4.41117317339996   -3.76555081037816    2.22313155264641
O         4.44734446343398   -3.28585775636264    3.58088711895789
C         3.89638303569910   -1.99041478182439    3.25760419340761
C         2.60070324837167   -2.24938383261597    2.44951811922365
C         1.35502445164547   -2.14590432941037    3.33356687198530
O         0.13826264640459   -2.04544799551365    2.60538887469834
C         2.93568079388149   -3.63877919048511    1.83161721038513
C         1.96503748830841   -4.74024581379421    2.24320652871462
C         6.33833826003737   -1.52626493971453    3.04265594037729
O         7.11839013749132   -0.58002821761566    3.12942237394030
H         4.17934478630474    3.11700497735834    1.93393157910265
H         2.63210544453111    3.40805330910669    1.19798291646977
H         3.94651966717849    2.77002796931921    0.20738685453684
H         2.53340091156719    0.71405662474245    0.81665161967625
H         2.07959554807484    1.47212912007190    2.27257771904892
H         3.96732421952516   -0.85801867003407    0.68764374738991
H         5.69968168516276    0.82118744674276   -0.19851059535821
H         6.64911600416643   -0.47230196063749    0.56244559026281
H         6.26096964256579    0.91012665325028    1.53602669142783
H         4.84126781937713   -4.74148779573798    1.98285170682971
H         3.88768178742846   -1.30671147463988    4.10824693522938
H         2.35600832225981   -1.52602996072046    1.66497553041331
H         1.37282176261008   -1.24255700948348    3.95393278342431
H         1.28496869429925   -2.99046788753009    4.02515580343524
H         0.12714797411535   -2.77911771280809    1.96780667485623
H         2.87230585852855   -3.57553633533328    0.73810574079218
H         2.33928674206398   -4.94158649223362    3.25142566124558
H         2.15509358700213   -5.63957102160869    1.64545524294652
H         0.90907930306070   -4.46200497502310    2.17475238433079
H         6.64553687950792   -2.49470492025271    3.46818272259193
