37
 energy: -56.173589554669 gnorm: 0.132740614103 xtb: 6.4.1 (79825abcba525fcdf90b791dcacef51065a7a4e7)
C         2.84503324646449    2.33461489719501    1.20723449748657
C         3.36671630080396    1.10289285165303    0.49050800894300
O         3.89101009144746    0.26124200637717    1.51971094270767
C         4.81291972735554   -0.72755512084688    1.02682409070125
C         6.12399346885457   -0.15997031101280    0.46654804050076
C         5.09964408230777   -1.71382265677323    2.18078364396690
O         5.22807144149797   -3.08564876190354    1.75701255760395
C         4.12416986021558   -3.74090881201757    2.41289853454170
O         4.28369084286778   -3.21780407054660    3.74550067085747
C         4.07447399600949   -1.85378771891094    3.31896749883290
C         2.62257168618801   -1.90922278050327    2.78253407738584
C         1.64966738178384   -1.93564079162845    3.96436535312273
O         0.28588093195555   -2.22088008121553    3.68228553641741
C         2.74769631070383   -3.23312068574651    1.97255314843209
C         1.63440130871228   -4.27492212276635    1.96992482153803
C         6.44716303925738   -1.41072114085419    2.85665817427056
O         6.71496379121261   -0.44301502700698    3.56602474251696
H         1.98390902485977    2.01297595193119    1.80134840353795
H         2.48619586884445    3.18774884996617    0.62167804861582
H         3.57060178855699    2.72232674498393    1.92862782584511
H         4.20267408733932    1.45945387726632   -0.11675070939564
H         2.54516476351924    0.65384836290323   -0.07718572828462
H         4.42201585413743   -1.35106614100049    0.21424584413767
H         6.48966360251653    0.47290468381887    1.28122537414919
H         5.87752006322125    0.56149659158585   -0.31905771625615
H         6.73745789405954   -0.95611254411264    0.03559485403546
H         4.28624658936464   -4.82205497420489    2.41768542161642
H         4.36835852256514   -1.18331903651435    4.12842573160747
H         2.44748668613513   -1.06178235574065    2.11185273121670
H         1.70482583899313   -0.98538715734481    4.50767241337026
H         1.98442906289905   -2.59065558394671    4.77392134197253
H         0.01381760698736   -1.61542282785845    2.97213843023264
H         2.89274991411004   -2.85621793676610    0.95241240041758
H         1.66732160560842   -4.65968739061354    2.99363294963661
H         1.78483245684311   -5.08617052420386    1.24780277755382
H         0.66904252332254   -3.76976884822273    1.86965415163539
H         7.11579600520699   -2.22361498039070    2.53192195797753
