37
 energy: -56.185316198980 gnorm: 0.122139002655 xtb: 6.4.1 (79825abcba525fcdf90b791dcacef51065a7a4e7)
C         2.79827257293156    1.96375642182747    2.13904959261823
C         4.04392089721636    1.36714493702094    1.51023781316369
O         3.65988361426784    0.26064791111564    0.69127596865588
C         4.64439044266591   -0.77966368404979    0.55317206612991
C         5.93636026349218   -0.26937759349602   -0.09905354011336
C         4.97790211651259   -1.50177220825042    1.87751585048661
O         5.19626378730221   -2.88641467043279    1.54126317267133
C         4.36122622599679   -3.57404579471838    2.49416745869589
O         4.42854059531159   -2.75987309143394    3.68055085552654
C         3.90671948873870   -1.61209386832480    2.97588891171076
C         2.52348900822772   -2.09086753161694    2.46962471285576
C         1.46557476111100   -1.88682620154336    3.55735192409033
O         0.22823424608360   -2.22824117189208    2.94639509650840
C         2.87989953698468   -3.56191413401683    2.10435164305804
C         2.03184357097998   -4.54794878425927    2.90016549559662
C         6.25931862667583   -1.13827870573729    2.64584422871880
O         6.26167144881540   -0.28480602147907    3.53069006919323
H         3.09302084768778    2.51648461286668    3.03658670650531
H         2.16398617659879    1.11179984758259    2.40612434640814
H         2.23498305575073    2.59525139022039    1.44543763700847
H         4.76799740525816    1.14416228006747    2.29809330800101
H         4.55790532850802    2.14512458064445    0.93627636726748
H         4.19033389134319   -1.53016258073638   -0.10442911383501
H         5.83664073020721    0.15603564113965   -1.10255947200257
H         6.51032514464035   -1.18197881228530   -0.28922024394515
H         6.43243239408527    0.28652926327361    0.70143488949632
H         4.87887906360276   -4.51093564704847    2.71652250190177
H         4.05177946598818   -0.79013664450747    3.67906950835166
H         2.29122498837742   -1.51788733028205    1.56609240047691
H         1.37042483050800   -0.86390363521943    3.93916720919873
H         1.66014922882824   -2.47121020578889    4.46130257859541
H        -0.44310357720070   -2.27551325094120    3.64780562600699
H         2.67913785816623   -3.73013786325710    1.03890389076826
H         0.99487354620742   -4.31940364007495    2.63641053386740
H         2.25661833292222   -4.48888415199812    3.97170710954065
H         2.22096547645998   -5.58847028944710    2.61963112568332
H         7.17538154481806   -1.67736148566821    2.35681387590161
