37
 energy: -56.175176104025 gnorm: 0.120845102293 xtb: 6.4.1 (79825abcba525fcdf90b791dcacef51065a7a4e7)
C         3.35230073496752    2.89032919963223    1.12903527374567
C         3.98397251061734    1.64737637143683    1.72824166405475
O         3.42028917918182    0.49176192507390    1.10427439367758
C         4.27242224280481   -0.62531587831730    0.79349952886855
C         5.49013182882367   -0.46098678117134   -0.12582384189783
C         4.76055243259507   -1.36263023598365    2.06024878501041
O         5.07651275336610   -2.66447753500439    1.52794707526034
C         4.54015669124056   -3.62072089597881    2.46393408161789
O         4.53450651169736   -2.86351477206545    3.68929971631653
C         3.76824013652541   -1.75573095231427    3.16786542011809
C         2.50425497909755   -2.44018455678701    2.59104740525065
C         1.55448424859556   -2.40429480122254    3.79130296252638
O         0.25706843130087   -2.93994278479818    3.56627538027273
C         3.04886400235090   -3.84392559702478    2.19438244368089
C         2.40327058696846   -5.01691135414336    2.92383189016762
C         5.97800574342170   -0.79485295275534    2.80852725902278
O         6.42547872989189    0.34646173194704    2.71610416928161
H         2.25921741274637    2.93939198056065    1.10221061395737
H         3.74394193445847    2.98880499499434    0.11099900279399
H         3.63832133577204    3.62762729287168    1.88518490093788
H         3.87650445899243    1.45427047603342    2.79870187699551
H         5.05287350271810    1.65773041804623    1.49116040027688
H         3.48296416347856   -1.27433126129006    0.39677514639541
H         6.36712023556013   -0.19175109921310    0.47112510578392
H         5.29650999163173    0.29168396736517   -0.89682148604822
H         5.62012738823585   -1.42514966626035   -0.62521627369822
H         5.09977575568617   -4.55962497197957    2.44261606173485
H         3.66703784398536   -1.01144940509870    3.95964954433724
H         2.14330373575482   -1.80670916464043    1.77431816153019
H         1.46822424354178   -1.33799547221311    4.02957162450115
H         2.03062140588589   -3.01579451748107    4.56321758452868
H        -0.07964444998260   -2.63200480940534    2.70796046595201
H         2.93233111796648   -3.85336418691401    1.10345880294138
H         1.31982108795496   -4.89598993243852    2.83097938647856
H         2.75096167101269   -5.14570845145527    3.95569233215993
H         2.61203790340181   -5.88532553357935    2.29183137418175
H         6.40209476911127   -1.52246854237080    3.51848789817397
