37
 energy: -56.167928555821 gnorm: 0.127786762283 xtb: 6.4.1 (79825abcba525fcdf90b791dcacef51065a7a4e7)
C         2.85642018738909    2.04934734500641    1.79489573758873
C         4.21592233628310    1.62774131610649    2.32119558048362
O         5.18197559339546    1.01673921414156    1.46332825862595
C         4.83541120881492   -0.28181713322348    0.94930573867014
C         6.03940403798600   -0.48000989327922    0.01866238269437
C         4.80534755689616   -1.30899844622215    2.10280126732739
O         5.13225546727921   -2.62261202080268    1.60728838772063
C         4.30585217450905   -3.54650633080354    2.34324202919361
O         4.15598947163992   -2.84543973379230    3.59262618591265
C         3.62181756427000   -1.62580474416159    3.03281039080021
C         2.37304097627107   -2.10065821157099    2.24927646940034
C         1.11444471234021   -2.14951601318165    3.11962941041727
O         0.06163199054169   -2.65013010747213    2.30610935992160
C         2.86666301131716   -3.51354369314384    1.81971522596798
C         2.22159836424075   -4.76584910140928    2.40315818605743
C         5.97772252662308   -1.00371403412974    3.04980848414371
O         5.81873950580880   -0.86360342803550    4.26078608206729
H         2.93197465103642    2.65388762020386    0.88562105601921
H         2.30066659183916    2.49821135780593    2.62503861617519
H         2.22056651071055    1.18224552302913    1.59240363548225
H         4.11011214509099    0.93193465577301    3.15748598019956
H         4.76026927304707    2.52760673936002    2.62581451774073
H         3.88861070211054   -0.33122068311717    0.39886651933835
H         5.84396670608364    0.05877347614148   -0.91378670267278
H         6.31380534526591   -1.50748837718374   -0.24101419502058
H         6.92241665451004   -0.14619518529856    0.57071145313991
H         4.75654306083012   -4.53095472800789    2.49459556039577
H         3.66387695827083   -0.91068082648346    3.85618624577170
H         2.08026018859852   -1.55229936652165    1.34805202809969
H         0.85061020348844   -1.13347854468365    3.43469481108348
H         1.10719983731288   -2.85101315078026    3.95887904206163
H         0.45764145703660   -2.95957489671481    1.47404789745158
H         2.94499561077597   -3.65331659859061    0.73430704597099
H         2.42725051949886   -4.76967639247086    3.47777390039280
H         2.71404926168294   -5.70344106023132    2.11920892673574
H         1.15858504622623   -4.90538098562978    2.18478885808021
H         6.95406361431540   -1.22221423730806    2.58900938813864
