37
 energy: -56.175835761932 gnorm: 0.127168027245 xtb: 6.4.1 (79825abcba525fcdf90b791dcacef51065a7a4e7)
C         3.48802329917012    2.75952831646198    1.35109201642917
C         3.98983304118125    1.68993867453743    2.30353846919204
O         5.05395901099578    0.92367936547580    1.73520634934169
C         4.70583367238175   -0.37201955816402    1.21506439664693
C         5.51966648105427   -0.50532938315964   -0.07910746079212
C         4.89447555667818   -1.46952176926058    2.28579327943402
O         5.28434014648542   -2.75621526844766    1.76578574114744
C         4.39589078253483   -3.62608182910184    2.49526553126756
O         4.11539865009033   -2.96449450785694    3.74368066926762
C         3.63298447731089   -1.75519213396864    3.11829502660892
C         2.44212638270498   -2.25233473652317    2.26181359272982
C         1.16060481621530   -2.39294802071445    3.08758370467808
O         0.08572339345334   -2.91336173420892    2.31645241446516
C         3.07153862113949   -3.57243094544943    1.72738191797693
C         2.24804962679105   -4.82234429861682    2.01783918326690
C         6.00134785473955   -1.10753792296434    3.28992758426100
O         5.93508335045233   -0.14250317050136    4.04867013513079
H         4.24832832553425    3.20201400202889    0.69986198538737
H         3.10825209305396    3.61669647611599    1.91723222667434
H         2.62749856909803    2.48460859988087    0.73376320767184
H         3.15489468413041    1.02161816419930    2.52925947524017
H         4.44046919671915    2.16475086192124    3.18123118660503
H         3.64163592660290   -0.27033626608480    0.97216747420775
H         5.28278735494444    0.38411589409740   -0.67132359135451
H         5.08468569595659   -1.33164364578995   -0.65045367589456
H         6.55503838234550   -0.61282874482000    0.25607999288405
H         4.81282656218174   -4.63538512736086    2.54664867917639
H         3.41020015315741   -1.12558076021541    3.98147268850687
H         2.23858374777519   -1.55232514063433    1.44500242583925
H         0.79143080725032   -1.42877501014976    3.45539881283829
H         1.38402964267892   -3.13253421750964    3.86191198032329
H        -0.21720303843066   -3.78753555899559    2.61471664833723
H         3.31765134054367   -3.44893029626239    0.66532753784770
H         2.04707201790739   -4.95573870486511    3.08504128523361
H         2.84841543374275   -5.71447808824371    1.80366179553366
H         1.27816931435985   -4.93294539502727    1.52362141198745
H         6.90602651123230   -1.73591754796753    3.29388131525031
