37
 energy: -56.173885768144 gnorm: 0.122953002805 xtb: 6.4.1 (79825abcba525fcdf90b791dcacef51065a7a4e7)
C         2.95509791087224    2.61630634981068    1.56784096420671
C         4.01639361558077    1.66844950168206    1.04038661651427
O         4.14833668599971    0.45731361960990    1.78755441059694
C         4.54028185367746   -0.68401143801755    1.00376189078231
C         5.68771625836632   -0.38643928370757    0.02917415423580
C         4.98696668199034   -1.70540866075053    2.07323727529299
O         5.07703374196147   -3.04859096529616    1.55774564649855
C         4.24659878823120   -3.81506894506282    2.45275411050301
O         4.39001202372328   -3.19197547359568    3.74352951356140
C         4.03637307082924   -1.87376899411717    3.27075681471212
C         2.64994276002371   -2.08954842846144    2.61493332645912
C         1.44050251872590   -1.93347488328154    3.54060132513800
O         0.23372355832171   -2.26569241845117    2.86668736858952
C         2.76808314800080   -3.56711464585980    2.13820290490644
C         1.86379795628592   -4.51879786863505    2.91367067772291
C         6.34578514642856   -1.24315843829908    2.62498122629205
O         6.46029072894151   -0.48017144939357    3.58211895811134
H         2.14031965644830    2.09368601715673    2.07868561122394
H         2.45172706648110    3.07990367233271    0.71275414027281
H         3.57448277495526    3.21109859789232    2.24589929008338
H         5.00567133302105    2.12125454027567    0.93540312680807
H         3.72005046670393    1.35333714197523    0.03452926845713
H         3.70917149677120   -0.95023028982973    0.34025730206019
H         6.56719057434333    0.13585874296215    0.41862795048867
H         5.39944702420140    0.19669815218353   -0.85133230136157
H         6.06330259191774   -1.37072039593990   -0.26412997807331
H         4.59418743621619   -4.85089415158490    2.49039829592208
H         4.09682502629487   -1.11775107120546    4.05555072064697
H         2.45593578350038   -1.46600958765961    1.73619324718501
H         1.35984964584699   -0.90995058369312    3.92413765291230
H         1.59188606176505   -2.69433090787165    4.31175099085646
H         0.17979124763471   -1.75015284353165    2.04436376751972
H         2.43503127104529   -3.69452480399696    1.10059677640567
H         2.30954630837512   -4.69487735046497    3.89724111982730
H         1.91909067982937   -5.52511555669542    2.48183601152994
H         0.81139980464967   -4.23158662540338    2.99804756252682
H         7.27483231503873   -1.70448807145134    2.25435152462799
