37
 energy: -56.186556502239 gnorm: 0.110206800265 xtb: 6.4.1 (79825abcba525fcdf90b791dcacef51065a7a4e7)
C         3.15792787932473    2.67804297079703    1.05993946794882
C         3.70479285583562    1.47706671360300    1.80932854342174
O         3.32001845849502    0.26136887065905    1.16392463029606
C         4.37525339289834   -0.62783808848295    0.75604623346050
C         5.62444102736008   -0.03328034627173    0.09196229810005
C         4.87119370737993   -1.46635908855461    1.95499698077877
O         5.02874050414857   -2.79934940458150    1.42935620143346
C         4.43599212958264   -3.69570605254721    2.39026461643157
O         4.49889212349671   -2.99511239029179    3.64729527839443
C         3.92965390553960   -1.77153317498096    3.13245101889785
C         2.56085466144493   -2.27034493669929    2.60668523052231
C         1.58825871990440   -2.12813585366153    3.78048232000319
O         0.34234015985527   -2.72996652671694    3.45439835075862
C         2.91966193237642   -3.72262327056741    2.17474084764970
C         2.36750625109572   -4.93246327407846    2.92052513079402
C         6.15922657042586   -1.08043164040134    2.70099670077848
O         6.59493973827602    0.04871850000638    2.91674490160315
H         2.13770056847353    2.40160120309830    0.77590768767244
H         3.77305033213196    2.80064958175362    0.16212537464184
H         3.20169452287582    3.59412444391690    1.65664520302937
H         3.39628261537718    1.45876531306470    2.85776109854855
H         4.79048610097544    1.61560848338291    1.83999472984997
H         3.91247779083079   -1.17139020545032   -0.07596642575540
H         5.34541763753002    0.46357377230840   -0.84250358820089
H         6.37446860912959   -0.81249134323660   -0.07753367286327
H         6.09533390437938    0.72842670915989    0.71962778776722
H         4.88524130733523   -4.68739228541337    2.48977544620316
H         3.86407646738905   -1.04571288685264    3.94485702278788
H         2.19202144667026   -1.61759887225914    1.80887062055440
H         1.51884341543599   -1.10348262235491    4.16320188461118
H         1.89787646633992   -2.69230906204999    4.66497998233274
H        -0.05710790916726   -2.24443408737602    2.71304462739689
H         2.67787415432626   -3.82625039205518    1.10957256419722
H         1.30806036055336   -4.81770527152817    3.16854004245472
H         2.91782670577491   -5.14972484373391    3.84364947712759
H         2.52159895429880   -5.78336285914083    2.25016928200791
H         6.53220815236894   -2.01392377030126    3.15132683409443
