37
 energy: -56.183232584861 gnorm: 0.108424241955 xtb: 6.4.1 (79825abcba525fcdf90b791dcacef51065a7a4e7)
C         2.62036255022998    2.18320400438933    1.82924482517469
C         3.91017945064567    1.45127651961899    1.50730728087181
O         3.52684430137540    0.19563803502395    0.94255516189736
C         4.56849103404971   -0.76797070029894    0.70379824172902
C         5.83079716510711   -0.18510679016117    0.05431457806561
C         5.00321878586201   -1.63435536313336    1.90668916898684
O         5.14789330307980   -3.03131374258129    1.58179076926324
C         4.34465293477465   -3.78725387508043    2.50996655274408
O         4.49333588551907   -3.00872187857135    3.71275301803177
C         4.08028877268008   -1.75260949279835    3.13153307953814
C         2.66372001602589   -2.16165788566440    2.65733207714498
C         1.76680361133211   -2.01795651196811    3.88975115205985
O         0.36815559690659   -2.12227266671873    3.65791965678899
C         2.90400723150585   -3.56951411010402    2.03714349350164
C         1.71781327040808   -4.48249199040376    2.32731276307471
C         6.34192856157047   -1.14099577764197    2.48021923770123
O         6.44410973821854   -0.21177609531010    3.27864462858108
H         2.76283645639906    3.20457269191467    2.19593960081490
H         2.01024233307335    1.61443644622527    2.53898769749126
H         1.96624572864047    2.19912786404714    0.95228636889329
H         4.49117290597741    1.29634686077661    2.42008750634096
H         4.60736734784102    1.91740643168739    0.80337830646611
H         4.06396515211958   -1.42781114754157   -0.01168723304633
H         5.54217668827271    0.48866788473915   -0.75850180301198
H         6.47142127900887   -0.96575028497729   -0.36833955259764
H         6.32331571654018    0.46584774918586    0.78204074565655
H         4.69487126142966   -4.81205912275971    2.65926537687834
H         4.27605549068272   -0.99031484849945    3.88764238483459
H         2.32458772809385   -1.59182436133235    1.78618193656195
H         2.04344937628478   -1.07841581280739    4.38162246765941
H         2.08802385183947   -2.83907109138786    4.53711432689465
H         0.11121534950470   -1.37049635041117    3.09781258463288
H         2.99155944413454   -3.62349969485576    0.94480492455888
H         1.63645389264303   -4.59172642928232    3.41292543829082
H         1.82497004353469   -5.41384217190868    1.75870215997053
H         0.85442821328876   -3.95829269343464    1.90667875367843
H         7.24681566866329   -1.69364293776906    2.18175568338273
