37
 energy: -56.187350239266 gnorm: 0.110471674741 xtb: 6.4.1 (79825abcba525fcdf90b791dcacef51065a7a4e7)
C         2.75806130860028    2.54342446887108    1.61104421030552
C         3.91903126086977    1.68322641321079    1.14715053974343
O         3.65915482901977    0.31391526397628    1.46333089229486
C         4.52614229695110   -0.71027327288092    0.94376841864691
C         5.76084204292892   -0.38184226010627    0.09369445354955
C         4.88603658433672   -1.63922003656388    2.12448482185104
O         5.22442992441818   -2.96359130696066    1.66675882879815
C         4.42197239437926   -3.87113000007263    2.44815904159641
O         4.33570249026092   -3.19448237962905    3.71686683902124
C         3.80779784867647   -1.96544522415319    3.17186479902703
C         2.51519996028364   -2.42740119671249    2.45447954601136
C         1.40937420960160   -2.38787247961719    3.51256876356169
O         1.19527895114074   -1.09151509688987    4.05521480931842
C         3.00122482121944   -3.79103942555813    1.88115451659673
C         2.13169879509794   -4.98141631423143    2.27065456211771
C         6.06647271291570   -0.98575860062397    2.86207751427641
O         6.16874607210153    0.18275496701531    3.23016651313561
H         2.80629725048320    3.51927340341969    1.11773901112099
H         2.76606672854949    2.77683315738324    2.68106031145017
H         1.82738853105096    1.98207330522213    1.48490313013319
H         4.86979486853641    2.02127277951050    1.56726665531819
H         3.94326885309404    1.81503049768231    0.06045634065922
H         3.87331005310083   -1.21859884522375    0.22455327244861
H         5.38258143780190   -0.13222897207214   -0.90257693776355
H         6.39062153775381   -1.26976610685404   -0.02210308001917
H         6.33221649874822    0.41236495511098    0.58223087991862
H         4.87536373658539   -4.86410127817551    2.50826849073870
H         3.78721950737299   -1.19779766184737    3.94737287358941
H         2.11437716578863   -1.68845720879987    1.75310490188927
H         1.79241901177662   -2.95720764448051    4.36716875711506
H         0.46912476646932   -2.80666100308870    3.14238255239384
H         0.86750582112466   -0.54807630650221    3.31890990680496
H         3.00992410132215   -3.89385671346942    0.78884672496353
H         2.08926650998647   -5.21864435897166    3.33790745975219
H         2.46073285693170   -5.87468416832125    1.72657471463044
H         1.08479794810790   -4.84586706120785    1.98294525652667
H         6.82379204181632   -1.73237669124619    3.14904252400310
