37
 energy: -56.178950104762 gnorm: 0.118210758105 xtb: 6.4.1 (79825abcba525fcdf90b791dcacef51065a7a4e7)
C         2.64985939703991    2.37881699853938    1.73041049455750
C         3.98130022231675    1.72545071818696    1.40890295265114
O         3.60457353475720    0.35014058486365    1.50439033332513
C         4.45953504088616   -0.69088948321124    0.99855259876428
C         5.53073093759597   -0.15791911028333    0.03758533782525
C         4.97593857367174   -1.68115692629845    2.06591149012080
O         5.24214199515190   -3.00868056521893    1.57113968169984
C         4.43444670090475   -3.84089811191056    2.42740665807728
O         4.51956688827119   -3.18191923549603    3.70545805491025
C         4.03647454332889   -1.89389985176018    3.26515052461282
C         2.67170145950050   -2.23367588762043    2.61645883066785
C         1.47884247193103   -2.00575338086641    3.54871666745177
O         0.22067764110801   -2.01604862486822    2.88708290110212
C         2.94204078555154   -3.68440210042323    2.11972843017185
C         2.18882384554469   -4.70460487028079    2.96627051012491
C         6.32532935130346   -1.23790551680327    2.65511181552177
O         6.81823350779212   -0.11492057424563    2.56953359827625
H         2.42670797760231    2.16125119803788    2.77961325684182
H         1.88944261966345    1.93044906382219    1.08217390128800
H         2.66982576809598    3.45086520733663    1.51248274804289
H         4.81083640703260    2.05290335650649    2.04085929743126
H         4.21240133469404    1.92766049201684    0.35791886827139
H         3.77235695395294   -1.37005607740916    0.48050406983640
H         4.91333418155825    0.20101766420779   -0.79183024460680
H         6.03684906279037   -1.08780186031972   -0.24098702415018
H         6.13024168500134    0.63319428501617    0.49652778499089
H         4.76558100425060   -4.88260430521955    2.44656652082472
H         4.05548345851816   -1.16919565731678    4.08097005966812
H         2.44789721489299   -1.61583681648090    1.74078190752726
H         1.67400847654458   -1.01472949081357    3.97414454608414
H         1.49240646845529   -2.81638969824121    4.28300234467929
H        -0.00634258536978   -1.13307343764335    2.54985525071847
H         2.79945689540172   -3.86848777869229    1.04755042058732
H         1.13134900358790   -4.42502946700244    2.99255639599840
H         2.61877689585723   -4.71972863727045    3.97479686175220
H         2.21162402143246   -5.67894916180999    2.46899293689153
H         6.81150879594621   -2.08919097491056    3.15736940157777
