37
 energy: -56.186121085074 gnorm: 0.112589507305 xtb: 6.4.1 (79825abcba525fcdf90b791dcacef51065a7a4e7)
C         3.95209320094318    2.65347170416617    1.12035552088511
C         3.66832985047766    1.42026295024400    1.95800926417162
O         3.21071879574740    0.31082525493590    1.18195583407305
C         4.19251558494298   -0.63840499428831    0.72851169387559
C         5.22472620980402    0.05929776213575   -0.16743931827322
C         4.75387032476381   -1.50982960652908    1.87396234310157
O         5.07495819993463   -2.83064870034627    1.39404369831036
C         4.50604460626624   -3.67731233092228    2.41269421921501
O         4.70979303057954   -2.93128848173123    3.62795097055182
C         3.93775105440659   -1.81124012569278    3.14247623145864
C         2.54616042492210   -2.35490353755202    2.73411386699927
C         1.43234696230149   -2.20151015067718    3.77327503002829
O         0.21858033695694   -2.71212704847121    3.23765862566649
C         2.98202667287681   -3.78636373729795    2.30356389512433
C         2.49457080512149   -4.86088208827532    3.26926572449777
C         6.06947158967054   -0.93987223515822    2.42968366897246
O         6.16912852316689   -0.00344933419574    3.21997093405774
H         3.37345248047946    2.53806955549748    0.19850134028543
H         5.01052029960264    2.73172763541226    0.85001084123857
H         3.55269214440843    3.49219694181347    1.69845351632222
H         2.78559112338730    1.67743884971847    2.54907375768732
H         4.45758372122745    0.97038567119464    2.56919894424978
H         3.66783191384162   -1.32692325867508    0.05582685176903
H         5.99225783232442    0.63836790268224    0.35554972199405
H         4.69426036923092    0.77695182785840   -0.80148874161274
H         5.68740988188067   -0.58747014226964   -0.91811687983487
H         5.07294144815815   -4.61164761276536    2.38415707932923
H         3.93492577954446   -1.00387053364599    3.87682313368940
H         2.14444287949555   -1.69006055392543    1.96260214284845
H         1.30618835538314   -1.14728095067939    4.04510547749569
H         1.72592699769489   -2.81887759222662    4.62718303180730
H         0.35623903963298   -2.74603554084743    2.27599020648851
H         2.71344726943490   -3.98622015268753    1.25871658704669
H         1.40169488605257   -4.84611317009430    3.31937058224017
H         3.00247096255687   -4.65986758924871    4.21997301640801
H         2.81494686594102   -5.81855259811974    2.84810304277305
H         7.00194837010372   -1.45461235902396    2.14888175292254
