37
 energy: -56.179195080264 gnorm: 0.127514705577 xtb: 6.4.1 (79825abcba525fcdf90b791dcacef51065a7a4e7)
C         3.53902904306099    2.31599254302751    0.24510723192293
C         3.09133629887677    1.54662470721864    1.47418558680096
O         4.07276018689594    0.72357751374019    2.10815662303839
C         4.62321152887270   -0.31074141128306    1.27283495715250
C         5.96841906318228    0.08801697508879    0.65123654332329
C         4.94587132434107   -1.48195861214992    2.22713999981083
O         5.15926327389732   -2.72913029108982    1.53648157822782
C         4.27404120125333   -3.64980834962633    2.20497588947441
O         4.41723103623459   -3.28476930172502    3.59103401728659
C         3.94092149440119   -1.95449187679499    3.29147762400712
C         2.50191602446318   -2.12075997948271    2.74332404062673
C         1.41258019667720   -2.31982785594388    3.80053040587285
O         0.10149185542690   -2.42725920292738    3.26168921763293
C         2.79543704100612   -3.39430756484827    1.89694770122773
C         1.97897975020810   -4.66171318377678    2.12468307657051
C         6.09877289005020   -1.04359176149959    3.14536477889719
O         7.22618409706160   -1.51668632638232    3.27381242339448
H         2.65015455424656    2.79549894125966   -0.17671456226231
H         4.00446765529705    1.63646059665817   -0.47675244412493
H         4.24260239696380    3.08245212198794    0.58378520492524
H         2.24849798359278    0.93758551074073    1.13740796273852
H         2.77687739847599    2.19264796654723    2.30040203113019
H         3.90424784662556   -0.65945920053182    0.52227358983308
H         6.21489364732009    1.14362900703917    0.80249155246140
H         5.94525512896794   -0.21061969003927   -0.40172101301294
H         6.75252764788837   -0.56281034230207    1.04809828758823
H         4.62169283741821   -4.65652641519515    1.95834684905627
H         3.95689310272429   -1.38102421255741    4.21991649806790
H         2.22733795996947   -1.33058125459966    2.03703233908314
H         1.48548050659411   -1.48013701221707    4.50111003802845
H         1.66323207637412   -3.25471074049168    4.31009717426887
H        -0.38158128128647   -1.59282801436329    3.13811420042201
H         2.62380087717451   -3.16176475843879    0.83852989839577
H         2.22579231224992   -4.95948760085213    3.14816749063246
H         2.36191873759788   -5.39908623518089    1.40924442457078
H         0.89825862372570   -4.54067039024268    2.00409240139558
H         5.66940966053942   -0.18473699206831    3.68512005212078
