37
 energy: -56.186749764780 gnorm: 0.103942895598 xtb: 6.4.1 (79825abcba525fcdf90b791dcacef51065a7a4e7)
C         2.74428485935328    1.82482996447551    2.53420889350729
C         3.94724179551363    1.19834692904279    1.85347188033050
O         3.50649167283831    0.20664296853594    0.92353565202742
C         4.51484356931844   -0.75137059150148    0.55473887649368
C         5.67320380704280   -0.08854055642299   -0.20277946196635
C         4.95294520103696   -1.60533093875998    1.76526598026355
O         5.11047226564645   -3.00445191114293    1.45602800061514
C         4.43517213096166   -3.66329213767924    2.54600513208595
O         4.45574559380565   -2.75362473119762    3.66269484644902
C         3.91401231953967   -1.65416969988402    2.89851780168182
C         2.54536245866280   -2.22127823976310    2.44681030279597
C         1.37871739058207   -1.93820510885298    3.39695490727342
O         0.54789239251424   -0.92426225616371    2.84696065036953
C         2.94301569698112   -3.70674203052226    2.20247407693036
C         2.33487167286826   -4.81632764957858    3.05321700487471
C         6.25220927630565   -1.15728699643662    2.45494253650061
O         6.37491362151573   -0.40534555720817    3.41977465742702
H         3.07601663355562    2.64269846029328    3.18151332165677
H         2.23931193543098    0.99062461820208    3.03278882434979
H         2.03900831068592    2.13759624508982    1.75836047776533
H         4.70333804183084    0.79132807411968    2.52976948813689
H         4.50042358167651    1.95764782082006    1.29105199190656
H         4.12300505302300   -1.47582150742245   -0.16878630931868
H         5.33015770252226    0.26750278492512   -1.17925120700103
H         6.51793033427789   -0.77693128910211   -0.30763807417745
H         6.00687223772525    0.75821710954846    0.40349485147830
H         4.87334338223069   -4.62647290567730    2.82070056152463
H         3.87772914426678   -0.76378328757405    3.52860873091848
H         2.18975840461681   -1.79283541287023    1.50415128644860
H         1.62252378215468   -1.61365187484286    4.41500727879244
H         0.72926632469531   -2.81344109385441    3.49004601072015
H         0.20960384622558   -1.19685490369710    1.97738606473041
H         2.86600700950350   -3.90385263272632    1.12590524317160
H         2.27403255271388   -4.43271890405964    4.07608030200120
H         2.96645772777563   -5.69704746787543    2.88694791244857
H         1.31494525339056   -5.00882008749263    2.70702574378139
H         7.16020003031925   -1.65942976137384    2.08517844568732
