37
 energy: -56.178749407635 gnorm: 0.116171969886 xtb: 6.4.1 (79825abcba525fcdf90b791dcacef51065a7a4e7)
C         3.78431903211787    2.49536255403902    0.27668765213382
C         3.16687295468512    1.62390281725588    1.35479131922989
O         4.00007160934514    0.70905793463611    2.06988406237281
C         4.60646378001100   -0.37163620272665    1.33847221304880
C         5.89907268968233    0.09486099073121    0.65545046872800
C         4.97178761210150   -1.51270996099940    2.31368826784590
O         5.15527136573228   -2.65875774835736    1.45876687984196
C         4.32875594161668   -3.69770587141111    2.02055857062873
O         4.35844460098975   -3.40144692124418    3.42990706843473
C         3.93783765378214   -2.02315261739730    3.33173650580665
C         2.60206036829492   -2.19974081953497    2.56794997401856
C         1.54306106500261   -2.28191486891225    3.67055316287645
O         0.22004119227571   -2.59035944365233    3.25183568451437
C         2.84554143832262   -3.47539890424386    1.70897128814465
C         1.93779985220491   -4.63618847739346    2.10057785306118
C         6.22570674948184   -1.28268510224232    3.17349034988399
O         6.11829774202385   -0.74745668048307    4.27501980969069
H         4.64336384383429    3.10649185903546    0.57083191587992
H         3.03120031924474    3.25007373615399    0.02628518874241
H         3.87285529142522    1.99978212109158   -0.69477510068209
H         2.30339342623645    1.09484658980290    0.94341929365014
H         2.74142750234708    2.21170558662563    2.17475969072146
H         3.95583252895629   -0.74859628124532    0.54070325796893
H         5.77574749554474    1.00444330049378    0.05929992322985
H         6.19007680434476   -0.71831596489826   -0.01723064469360
H         6.78047060194498    0.25733629709811    1.28206135010587
H         4.81216458231943   -4.65415537112068    1.80448161982700
H         3.94171464579662   -1.47547933259730    4.27574813062038
H         2.56298923642029   -1.32288443833333    1.91356488054129
H         1.56099796648694   -1.33888331964991    4.22874377474035
H         1.82849733697168   -3.04716054774805    4.39816284942599
H        -0.33229568635380   -2.69836678569137    4.04440381302367
H         2.65102624959009   -3.24108610984632    0.65491022120000
H         2.27651933700979   -5.15351914308144    3.00320982778130
H         1.94606045571168   -5.31386928086527    1.23866472360800
H         0.88761748396390   -4.34200073058006    2.18845383544868
H         7.12303704377075   -1.79559579914655    2.79264785571632
