37
 energy: -56.170251556789 gnorm: 0.120576383309 xtb: 6.4.1 (79825abcba525fcdf90b791dcacef51065a7a4e7)
C         3.42267540489704    2.65126196687614    1.04750078251125
C         4.03169470907258    1.89057492434021    2.21087517210624
O         5.05082548567679    0.94069942965473    1.89208400921232
C         4.65873405456976   -0.29414885615072    1.26599406756024
C         5.48769936303985   -0.39858144701793   -0.02120695802908
C         4.83341016041173   -1.45481597749207    2.27043284945294
O         5.09342995184631   -2.71072234810784    1.61235133579637
C         4.40446566489163   -3.74930843726525    2.33679456966422
O         4.29878080639765   -3.17884795738748    3.65524802741343
C         3.72000631666240   -1.92918199154080    3.21981959446256
C         2.50456950193080   -2.32802567527850    2.34661213367758
C         1.27362892999488   -2.34808828341000    3.25674876474050
O         0.11517158001627   -2.72228281905434    2.52271948219652
C         2.97491627783998   -3.70339061872839    1.78842207456462
C         2.18031962653172   -4.97175125583198    2.07938663726407
C         5.99206023843337   -1.02725908950793    3.18651656016834
O         5.93735438803145   -0.41807038204221    4.25294503317727
H         3.99031120550771    3.49205738454568    0.63663519562887
H         2.54964660061246    3.12516467256175    1.50871124725071
H         3.15873659866279    1.93380607728348    0.26470331668793
H         3.31263723711701    1.22201927548660    2.69120217975173
H         4.43459646951015    2.56625319545048    2.97244795736223
H         3.59706355435601   -0.23133086245548    0.99997736430653
H         5.01671141217229    0.13401395115468   -0.85334699978548
H         5.89821750643070   -1.40761174281456   -0.12970926286883
H         6.40492895387116    0.16594445725691    0.16827151907532
H         4.94880791819330   -4.69559842565877    2.27852298831770
H         3.46261982314586   -1.40499489932307    4.14182777367407
H         2.39051440596391   -1.68037797001965    1.47130224687731
H         1.17256603452039   -1.40387224176542    3.80396841883541
H         1.42457882071470   -3.14287644626674    3.99296651615741
H        -0.59937718237534   -2.06446057060756    2.56266703654699
H         2.97518067608985   -3.73389955157865    0.69167574390415
H         2.32357480519839   -5.19132704416333    3.14163463900983
H         2.50139485990590   -5.75580925063628    1.38341429171356
H         1.14610638318251   -4.82113824783924    1.75554977041792
H         6.96650988368380   -1.24187437498724    2.71992442684556
