37
 energy: -56.178538686893 gnorm: 0.126639715561 xtb: 6.4.1 (79825abcba525fcdf90b791dcacef51065a7a4e7)
C         3.06325058920059    2.57699309486001    1.94571909580944
C         4.25793131625800    1.78438988878499    1.44821795461878
O         3.64170837908753    0.53168420595331    1.14241317560007
C         4.44082166355020   -0.61245277152200    0.79178071520977
C         5.61476514981567   -0.26520443845949   -0.13355783293937
C         4.86822310650241   -1.53953446364334    1.95126540419599
O         5.00523989325314   -2.90326311537488    1.50466380816430
C         4.36016532170088   -3.74932594893320    2.47739570637074
O         4.45067534247527   -2.96272645518799    3.68071742107360
C         3.86945240365157   -1.77632569323773    3.09687155791207
C         2.48404758176978   -2.30204533240215    2.64617591493823
C         1.44559807267435   -2.07077820304276    3.74713187801592
O         0.13929553296903   -2.22647730361079    3.20845252986735
C         2.87346078755944   -3.71120408713093    2.11039617074010
C         2.20579496829649   -4.94433003618051    2.70906609693910
C         6.22703400167268   -1.22416880528672    2.59830616462041
O         6.51279319367952   -0.33034953316535    3.39253667793354
H         3.32374279379293    3.60638869726182    2.21113645536965
H         2.67974569201669    2.05324855580713    2.82781535641619
H         2.28390381718184    2.43664319364276    1.19067006732217
H         5.04602699460744    1.70676422438488    2.20161279959913
H         4.61899926297306    2.29627977625461    0.55018524801050
H         3.72569310199299   -1.17794006741436    0.18295355077192
H         5.27738483809012    0.43765703442691   -0.90174064927283
H         5.83860084355659   -1.21020216383991   -0.63884678514936
H         6.44041744047699    0.14457655351514    0.45489738585563
H         4.74798314499661   -4.77114515515718    2.50292341868631
H         3.91120816727704   -1.08451570132309    3.93994593692305
H         2.19523190169587   -1.65023774780304    1.81529932750274
H         1.57476462591574   -1.08335911299581    4.20487256752122
H         1.61219335278321   -2.87332815016406    4.47145933991614
H         0.06843545052596   -1.81988047378529    2.32835951224380
H         2.83996082249634   -3.64053532484808    1.01601640774857
H         2.30894586544259   -4.96958631205524    3.79802358277492
H         2.80263130376018   -5.78948237997930    2.34613682045161
H         1.15697203719707   -5.19002575403233    2.51734833696452
H         6.92607133124945   -1.83529448287456    2.00569137727292
