37
 energy: -56.170899836062 gnorm: 0.125767925167 xtb: 6.4.1 (79825abcba525fcdf90b791dcacef51065a7a4e7)
C         2.94912627341276    2.15775138644714    1.50030771692990
C         4.40389613239471    2.00191107354747    1.09738376156352
O         5.10201400585368    0.86774573529167    1.61586155222334
C         4.58777094067871   -0.40468673857352    1.18337542739070
C         4.95041226109418   -0.80948326992783   -0.25175771921939
C         4.93557755691360   -1.43005483803352    2.28528648837888
O         5.29395506645757   -2.72059164930217    1.75231117071028
C         4.38911069817619   -3.67219956486125    2.34716401193891
O         4.21526607796898   -3.13612296495462    3.67280117949579
C         3.81539547975510   -1.80814455889770    3.26929193068558
C         2.52808789338716   -2.23643027487662    2.52212077188819
C         1.46749793088621   -2.25290970250906    3.62613311931950
O         0.14656207369784   -2.43567884691867    3.13362131784315
C         2.99019323528958   -3.50470262858962    1.74599264863853
C         2.15916684343227   -4.68585423515590    2.23492920461883
C         6.18278649759751   -1.05297836839907    3.10184478818970
O         6.10283312958018   -0.54291437310277    4.21755778257958
H         2.27715657428516    1.64646851625653    0.80388513130109
H         2.77865146049600    3.23911732723626    1.53292979740526
H         2.79395354568110    1.82258239304755    2.53024057370146
H         5.03554360271573    2.76478244289101    1.55973977786209
H         4.43699556951428    1.90304460059874    0.00743242811533
H         3.49941371970879   -0.27553414311737    1.20893731141742
H         4.59290552457215   -0.13828101139895   -1.03891781166584
H         4.34285768077659   -1.70639808328937   -0.40943234201971
H         6.00206190726630   -1.08957232623834   -0.35892507400821
H         4.94297375804701   -4.61345130875905    2.29766976860258
H         3.70413859812177   -1.04443261228592    4.04096866314896
H         2.22021276439253   -1.41263461244990    1.87004935334200
H         1.61138862293207   -1.23908929952974    4.01686405059515
H         1.75211332161080   -2.99378610478686    4.37885279441894
H         0.10271545989869   -1.81562012549620    2.38628571072910
H         2.90487479181604   -3.31488477868277    0.66873997252026
H         2.47323754645755   -4.82597604533865    3.27359751836358
H         2.26070433838439   -5.63219917267441    1.69056246304356
H         1.09126631950819   -4.45134349035357    2.19315826345060
H         7.16775404317844   -1.34003953679401    2.70090231525283
