37
 energy: -56.183549545749 gnorm: 0.135112929393 xtb: 6.4.1 (79825abcba525fcdf90b791dcacef51065a7a4e7)
C         3.03373600395118    2.62654034529803    1.35198098750975
C         3.98625787494313    1.51110714920600    1.74121115781747
O         3.49535197914942    0.27655348046046    1.21451634566646
C         4.31188144025677   -0.81772721388343    0.76019930344670
C         5.41202580740534   -0.35527145108976   -0.20457692005047
C         4.91424694866123   -1.51069734536688    2.00257821663205
O         5.19061366196015   -2.88389382079643    1.66208550743982
C         4.43379079854054   -3.70743805166425    2.57156058458662
O         4.60788948736934   -2.90908740542832    3.75783199903004
C         3.97841621987207   -1.73351204356353    3.20282855252856
C         2.58120155588335   -2.25267073139110    2.78197272072545
C         1.50037116424771   -2.09598146098538    3.85492193458843
O         0.16863904877700   -2.33712763515374    3.41997129376734
C         2.94162146847694   -3.66261166012921    2.22826248501934
C         2.23734146044679   -4.90616259656338    2.75963209940496
C         6.32174033675069   -0.98861714648182    2.33556301015700
O         6.41912041593452    0.01637941306465    3.03689912112753
H         3.07219445542469    2.84511712692854    0.28020535581704
H         3.37652190856591    3.53758897919425    1.85394350483259
H         1.99924210165311    2.36354671296732    1.59247055657237
H         4.02510636215736    1.39253660075923    2.82710072495735
H         4.98605260915482    1.81403844366896    1.41332829350526
H         3.62759609737426   -1.48637889226433    0.22492952745848
H         4.91889576776677    0.22667222824707   -0.98950295462976
H         6.00405957324514   -1.18109345991226   -0.61195151508697
H         6.15691144667808    0.33704241149842    0.19760289107604
H         5.07265379945794   -4.59416908957170    2.59859667856992
H         3.91566668931988   -0.88954266284714    3.89195639297842
H         2.18173136374388   -1.61613035508418    1.98581731237174
H         1.54294410641867   -1.07801211619368    4.25881913793351
H         1.68928776862209   -2.82566004569202    4.64762007993754
H         0.19047162251310   -2.36273015339852    2.44849113357648
H         2.89482113847733   -3.75591925908841    1.13606891085462
H         1.15677467981951   -4.75766561470532    2.67343191659365
H         2.40199313592650   -5.10373627609988    3.82549710925136
H         2.64425905192563   -5.74152387672006    2.18192868475374
H         7.16803681503797   -1.57644766521688    1.94625902988340
