37
 energy: -56.183193621607 gnorm: 0.119965288422 xtb: 6.4.1 (79825abcba525fcdf90b791dcacef51065a7a4e7)
C         3.51389418108046    2.87455464768076    1.02286149473889
C         4.13164818062064    1.63104000973072    1.63526708171236
O         3.47483821886012    0.42679291610068    1.23413317644642
C         4.26034259926424   -0.71069238233980    0.83452755223713
C         5.26264751391103   -0.41287586902389   -0.28871165496654
C         4.81640410888582   -1.41738339281456    2.09068861226334
O         5.10402114990501   -2.73492860868761    1.58144068385654
C         4.44930680847557   -3.62637869153309    2.50600368756925
O         4.61675237459414   -2.92544080306457    3.75322541458238
C         3.89610684503967   -1.77000813278633    3.27167767295134
C         2.52695801460648   -2.38816364060770    2.89462404658054
C         1.49718043999772   -2.50528941394018    4.02148055081556
O         0.19082747180145   -2.78689448193409    3.53672857687770
C         2.95106132795450   -3.71549509285844    2.19981575365351
C         2.30754828874357   -5.01281620983655    2.67692351844587
C         6.14706035651260   -0.80782248276283    2.56214773744072
O         6.27627818046202    0.30625778497402    3.06563677659280
H         3.97380980409737    3.11219453204799    0.05851571981031
H         3.49998870627738    3.63381106030672    1.81204746624233
H         2.47961262297799    2.69829283868966    0.71242317120316
H         4.20544220735560    1.71717443163137    2.72240076120670
H         5.19704839890265    1.63336749716219    1.38271804224317
H         3.52190404339851   -1.36861419727145    0.36155541859302
H         4.63696852025592   -0.04620560238477   -1.10848191496399
H         5.73925978624259   -1.34060922057755   -0.62126482002854
H         6.03541078469456    0.31746036900781   -0.03307986382983
H         4.95401563521218   -4.59234576288620    2.42029816097673
H         3.84823086378083   -1.06695699847935    4.10507193461356
H         2.09163230460873   -1.72458512009840    2.14044993434126
H         1.47731741203357   -1.51763764513005    4.49619777117733
H         1.80251449565487   -3.28258401718361    4.72793287233879
H        -0.04898263972149   -2.15477222969200    2.83828858621993
H         2.74947856991512   -3.64471553745419    1.12364753632108
H         1.24808002137815   -4.84213634807710    2.89023495298691
H         2.86551944562360   -5.23403057495586    3.59449975410423
H         2.36848433877646   -5.76779817452735    1.88734093260171
H         6.93217003843138   -1.56882885104404    2.42876052294108
