37
 energy: -56.178253970580 gnorm: 0.131060075026 xtb: 6.4.1 (79825abcba525fcdf90b791dcacef51065a7a4e7)
C         3.05126660208432    2.51387423100135    1.80842117698056
C         4.10409558047641    1.42231242668732    1.86349596480155
O         3.67783900578352    0.41753150897955    0.94086958023077
C         4.55551009834545   -0.70200660784593    0.72429977675122
C         5.80654831415816   -0.28725967466038   -0.06174381967456
C         4.90303325856483   -1.50900333578765    1.99494576993035
O         5.05533356750842   -2.85492340022564    1.50170518404563
C         4.31469402591413   -3.68347307813224    2.41991509401578
O         4.40356426771786   -3.01480307360230    3.69266665427341
C         3.89294939143575   -1.79094323799686    3.12023109316402
C         2.50684757302333   -2.17177950581837    2.54356837818668
C         1.39048015931752   -2.00336954563406    3.57765154051294
O         0.09857664126332   -2.33507618226398    3.08591984469037
C         2.80519793815712   -3.65143136350587    2.16140524743680
C         2.18697442375729   -4.82155772612373    2.91862852551594
C         6.26380677874437   -1.02821125435010    2.52562342553983
O         6.42002679534894    0.02738520119032    3.13610255991594
H         3.41267203104465    3.36436871953673    2.39493895922117
H         2.05644527373662    2.19518841752641    2.13743186967608
H         2.69333420295652    2.70773877883207    0.79280340751391
H         4.25116879025774    1.00432213094430    2.86268459444890
H         5.09720354416780    1.83305306247467    1.65398996943113
H         3.93696610602108   -1.36542625712438    0.10856203084604
H         5.48391890793787    0.31074097894022   -0.91979396471495
H         6.33816486617499   -1.18136991140919   -0.40290473225666
H         6.54831744537670    0.31799797783339    0.46678568781345
H         4.88592600934130   -4.60111312075645    2.58362111182501
H         3.96956228977074   -1.01575602537813    3.88464874833054
H         2.18771111085092   -1.48186463622066    1.75566417276234
H         1.21624082227527   -0.97809172519014    3.92356064588560
H         1.61144042625230   -2.59469416946292    4.47096139068704
H         0.12057044417229   -3.01433555504452    2.39091707899128
H         2.65235581790314   -3.84780342864219    1.09282638236121
H         1.21144834283601   -4.45891416776558    3.25618584756107
H         2.82414673347603   -5.13610317536272    3.75366529758885
H         1.97062934404183   -5.63725216229776    2.22221695906488
H         7.07539676682235   -1.72336552253987    2.25841130256317
