37
 energy: -56.183753346187 gnorm: 0.119763175558 xtb: 6.4.1 (79825abcba525fcdf90b791dcacef51065a7a4e7)
C         3.63289200576777    1.94987276783775    2.60560048524971
C         3.80769866273959    1.53315803261480    1.15688356444485
O         3.39153538840551    0.21804814025075    0.78296794636894
C         4.40531338900333   -0.80179343838466    0.73050960467518
C         5.58828398890200   -0.53397977908333   -0.20961406428758
C         4.89906466615326   -1.35863039529612    2.08428190273823
O         5.27848895047270   -2.73189969904393    1.86484844190163
C         4.42810284593784   -3.50760524680712    2.73276274711207
O         4.34312443763530   -2.65606478947090    3.89145662281428
C         3.76852400476097   -1.59267492471437    3.10071065071741
C         2.52506454856150   -2.20799813979975    2.41220492602093
C         1.36493442398449   -2.16184965741926    3.41017001478523
O         0.16233822565229   -2.68082897347936    2.85766044107434
C         3.01145767753283   -3.66757579635462    2.17244302226789
C         2.22548188142772   -4.78130614802372    2.85554600738198
C         6.14872522574447   -0.77706476414605    2.76590799303114
O         6.54001257905322    0.38837413804752    2.76147400362712
H         4.56262149728366    1.87545368747407    3.17833317984089
H         2.88939861790635    1.35850186687721    3.15055571041538
H         3.22436640886247    2.96483630158980    2.59400824139068
H         4.82696310474324    1.75151742033366    0.82803176535708
H         3.12356912905724    2.16058438588755    0.57622272222955
H         3.80586500886140   -1.58231101765270    0.24748869977838
H         5.22421207790327   -0.32814429992880   -1.22106250845816
H         6.23795419790280   -1.41190504757471   -0.28455319379825
H         6.09827067772667    0.40394128528836    0.02728117922963
H         4.99521416837500   -4.41328269135813    2.96363486285269
H         3.57249577293824   -0.74527306329177    3.75995417893007
H         2.20719084134033   -1.66678572751052    1.51517150914646
H         1.12608345077320   -1.11234553128869    3.61680568948800
H         1.73671918044471   -2.65412584548481    4.31345896423160
H        -0.14164357341970   -1.94783038587755    2.29622122771346
H         2.96020895806499   -3.78647501656555    1.08293857897826
H         1.17358238274389   -4.70955449468527    2.56320111099456
H         2.20311620877216   -4.70340930346713    3.94900181898453
H         2.66532517964964   -5.72930456668735    2.53152671540522
H         6.73899540243572   -1.63246378422608    3.13086508590068
