37
 energy: -56.182089249132 gnorm: 0.117616275521 xtb: 6.4.1 (79825abcba525fcdf90b791dcacef51065a7a4e7)
C         3.09893253619843    2.75808026666109    1.78288001624804
C         3.55295482537199    1.62285450210079    0.88392757471334
O         4.41925641592841    0.77529850518232    1.64135030771493
C         4.65012676529475   -0.49626806955929    1.00858500376945
C         5.89203560774271   -0.53356342803438    0.10789214173708
C         4.96851005249765   -1.48844688229088    2.14909825141610
O         5.17858336655709   -2.80127789712441    1.59202884038415
C         4.39644316266795   -3.69007461303644    2.41449340181733
O         4.34148911924379   -3.00909243608247    3.68262482134155
C         3.81714325525017   -1.78405880471243    3.12531263733617
C         2.52452885583418   -2.24094398112590    2.40471694700984
C         1.41413182580944   -2.06485756678685    3.44393679239633
O         0.06616912614593   -2.27283500623827    3.04320508007646
C         2.95398318507172   -3.65013084021820    1.90054204601601
C         2.11491412966754   -4.76955832930040    2.50686550471932
C         6.18354127181207   -1.27940593292973    3.06805704010366
O         6.26563379914958   -0.50000807806354    4.01524925362545
H         2.34073063800979    3.41009848110562    1.33795305702259
H         3.97402425346847    3.37374741457227    2.01664616091085
H         2.68561704664866    2.30852638010764    2.69076223897618
H         4.10478620334795    1.82226796512939   -0.03826586505228
H         2.74435607165545    0.98221803383869    0.51702563184603
H         3.72865609412059   -0.80027285789101    0.49836140058929
H         5.76508339609183    0.03799080755928   -0.81685293310941
H         6.23408776235630   -1.55382901244894   -0.09335024924905
H         6.68232933283152   -0.01265552406459    0.65560784984420
H         4.79060244271281   -4.70374445042887    2.52531186786207
H         3.58361698424936   -1.00123057808066    3.84902836443572
H         2.29077811135345   -1.66218949450968    1.50525747436431
H         1.48942987870393   -1.02745279454403    3.78937641742699
H         1.54678399060671   -2.73516168459520    4.29809512552305
H         0.10232652541784   -2.84841084817237    2.26070208062692
H         2.88180989626503   -3.70387610776212    0.80706784105987
H         1.11980706870653   -4.87550726587012    2.06454983961701
H         1.96051516475240   -4.78328281876270    3.59230843052592
H         2.65481241205198   -5.70743194961302    2.34545130514195
H         7.04344222456086   -1.92005868159872    2.81615538079264
