37
 energy: -56.181284281280 gnorm: 0.117281007457 xtb: 6.4.1 (79825abcba525fcdf90b791dcacef51065a7a4e7)
C         3.27404935103525    2.80647890882448    1.58166367574210
C         4.00434809460408    1.80544154345527    0.70554883858791
O         4.05473180598120    0.63165634452830    1.51931084208815
C         4.53651666069408   -0.57678979329476    0.90439954756591
C         5.82940355759799   -0.37335976327505    0.10312814975096
C         4.86094867195403   -1.54124417726901    2.06678022308973
O         5.03847984323061   -2.87625091204820    1.55275481720742
C         4.36083743195413   -3.74119393956678    2.48593496395579
O         4.37753822538639   -3.01710485234459    3.73105746856863
C         3.81109198853320   -1.81929361159971    3.15605333880441
C         2.49690989478877   -2.28883824197432    2.48425910901860
C         1.48108717859664   -2.16973340597946    3.62350629823936
O         0.22356600523160   -2.69506339238614    3.21913903963324
C         2.89018522238562   -3.73370515128333    2.05749792493379
C         2.03470337585644   -4.84531086052570    2.65521565837389
C         6.16121663552138   -1.12741166780472    2.77567384719214
O         6.21821778364131   -0.36353885888376    3.73724678583138
H         2.74289299781004    3.58207529566996    1.02105593135593
H         3.93976837933496    3.04052254883219    2.41923153063728
H         2.45556888445367    2.32250529257740    2.12299332199131
H         4.99075894490614    2.15987532801624    0.39555744473009
H         3.34231700495631    1.64937252835314   -0.15248458924635
H         3.72218794466083   -0.88964718157587    0.24043852339983
H         5.48095771563233    0.12247527264741   -0.80828705892677
H         6.33311171305376   -1.30141395772681   -0.18572050532953
H         6.54229014247204    0.18994115566530    0.71172202572190
H         4.95354356366373   -4.65170740519558    2.60772775858412
H         3.81905956356256   -1.02305102564138    3.90241335851815
H         2.09703013386825   -1.70901150942131    1.64609405647256
H         1.42329316878605   -1.09348577411613    3.82239794901106
H         1.84222334891928   -2.70132254323914    4.50865280104670
H        -0.36520209512613   -2.57378607833415    3.98304334675997
H         2.86147853763788   -3.78839234565273    0.96206713238766
H         1.01618724019849   -4.47226935728779    2.51178863045626
H         2.15867960334537   -4.79730306125312    3.74358090014919
H         2.21845202202775   -5.85368647625319    2.27237537930364
H         7.06071106560168   -1.59674607505774    2.34677404181966
