37
 energy: -56.179096444112 gnorm: 0.125710225770 xtb: 6.4.1 (79825abcba525fcdf90b791dcacef51065a7a4e7)
C         3.25031465538560    2.57929452884998    1.72893858251114
C         3.86831660708509    1.56194524674790    0.78762923173455
O         3.89229808005924    0.34893003996468    1.54296876313042
C         4.44036350844600   -0.77924586642077    0.83769007797457
C         5.68557102347972   -0.47993942364912   -0.00779797792608
C         4.94600245427055   -1.60836996467514    2.03912242437614
O         5.15180111859771   -2.97055609442504    1.61476616841842
C         4.32773098651863   -3.70702435620458    2.54033289581191
O         4.42144709720368   -2.99193948676526    3.78724302926650
C         3.96910132282792   -1.74317904697096    3.21959568388951
C         2.56600227042807   -2.13012416700234    2.69002915628697
C         1.59630106924552   -2.22307433136957    3.87113275091874
O         0.22898694270773   -2.48888593082134    3.58716053013187
C         2.89211959068172   -3.50886756389855    2.04416147325306
C         2.07581649905082   -4.76105387158394    2.34492984013064
C         6.19393838601982   -0.97567819140196    2.67696353612384
O         5.95191073913898    0.03812213753848    3.32888747256284
H         3.79721325221385    2.75307289239861    2.66095836474163
H         2.30853875189085    2.27146599776021    2.19560538415834
H         3.12760307993151    3.48066278726639    1.12094544680425
H         4.88022367470687    1.90080111257640    0.55110200955016
H         3.28974246522003    1.39868346717583   -0.12750005842678
H         3.71612922209025   -1.28374763700676    0.18744558991366
H         5.35980457500244    0.12118119340695   -0.86247615758604
H         6.21432500502729   -1.39858947992579   -0.28155213675306
H         6.33582315545012    0.15776144730988    0.59752134208269
H         4.77705651931928   -4.70331150665706    2.56654894413234
H         3.95972788079794   -0.91791877635104    3.93372215547920
H         2.23519840574902   -1.33693369565842    2.01176580531182
H         1.73618637407724   -1.33428283246238    4.49698317657349
H         1.88744879036007   -3.07711855139270    4.48946287080025
H        -0.11238059508904   -1.92009163589829    2.87663459637917
H         2.98125975341038   -3.43630395524918    0.95302815323891
H         1.04064812374679   -4.58834601523819    2.03556789335788
H         2.15307809445460   -4.97250081686657    3.41802563352439
H         2.64162053174780   -5.53442556093353    1.81680707897949
H         7.15935241620115   -1.47743729336889    2.50511014396557
