37
 energy: -56.180368677800 gnorm: 0.126631937579 xtb: 6.4.1 (79825abcba525fcdf90b791dcacef51065a7a4e7)
C         3.48391774838767    2.86634086192695    1.40725189613485
C         3.18591480335675    1.45458259911764    0.93701565985339
O         4.06307635144192    0.60430936320179    1.67873113414622
C         4.56306996223610   -0.57522663186407    1.02353970136447
C         5.78452673881819   -0.26238214198119    0.14881243602294
C         4.94948432523470   -1.51077193478072    2.19058558453462
O         5.16598551650559   -2.88148879971055    1.80039988949126
C         4.30453564853267   -3.64515131152281    2.66808332234369
O         4.29694876453972   -2.89035996732449    3.89492741596738
C         3.83410544172188   -1.69228615058380    3.23414150097950
C         2.49798027956310   -2.11675326637770    2.57577124218857
C         1.41289239392077   -2.25178047907272    3.64736715696311
O         0.15006978330781   -2.58390929971945    3.08539432464780
C         2.89116373905307   -3.54172872953689    2.08660598758182
C         1.99924897533764   -4.73759505254420    2.40152613214423
C         6.20976793540637   -0.94431095077331    2.86533842640517
O         7.24144732978843   -1.57788474844996    3.07886864657306
H         3.19486072859766    3.63203544587126    0.68053619341269
H         4.54574515611089    3.06707077940659    1.58531990681021
H         2.89725852024544    3.10628754186156    2.29912355797243
H         3.54597362720689    1.30673347466074   -0.08436703893164
H         2.15463957409892    1.19674953716091    1.19942293013466
H         3.82471709507855   -1.15909234080549    0.46158675852594
H         6.63514202782372    0.09542473876071    0.73734656617634
H         5.58302275128939    0.53489115266479   -0.57381573047881
H         6.11731938082703   -1.19313767607384   -0.31899617635953
H         4.74493834610696   -4.61876157320557    2.89894545983390
H         3.83659547446795   -0.77932386471721    3.83214874798977
H         2.23639110067366   -1.45773428657397    1.74157187397002
H         1.34691550601737   -1.27444103463971    4.13895809529741
H         1.65307419073072   -3.01685359744059    4.39132044319325
H         0.01662221387436   -2.00441053206467    2.31644778804857
H         2.84418077912329   -3.50326417419080    0.99111684941663
H         2.10879671884008   -4.97346017459295    3.46429295615532
H         2.26363953717076   -5.67280786803065    1.89389598637299
H         0.92673600503044   -4.61989761413987    2.21982621133729
H         6.01466119937126    0.03948385073259    3.32075162764828
