37
 energy: -56.176939230599 gnorm: 0.117280167544 xtb: 6.4.1 (79825abcba525fcdf90b791dcacef51065a7a4e7)
C         2.93104189245503    2.15820984227528    2.10888503382906
C         4.08551689860962    1.43787067049832    1.43710516474958
O         3.72175882425615    0.32491033368184    0.61764306026009
C         4.62870603133986   -0.78666708781286    0.50621160050002
C         5.82477084019314   -0.54905496982101   -0.42542436158448
C         4.95810843991159   -1.46564348492493    1.85418870612406
O         5.12880932399997   -2.88007518067008    1.63458317545739
C         4.27409820953652   -3.50393856779071    2.61356952018874
O         4.35410325603649   -2.58766761062333    3.72215452638186
C         3.86201682138751   -1.48236592973658    2.93322993852361
C         2.46183917030709   -1.97465369388028    2.49050028746390
C         1.55406330815285   -2.02544513044736    3.72229944164790
O         0.20164498133013   -2.41768912256506    3.52748334800746
C         2.83162031032932   -3.43656350620882    2.10254070494708
C         2.14476832373583   -4.62707028768126    2.76262473509979
C         6.22751126006805   -0.97915106070915    2.57281646173540
O         6.27013006275345   -0.40309461338840    3.65804265992200
H         2.23674589380417    1.37128027391786    2.41977535012162
H         2.34612214922732    2.72716147879500    1.37837761625268
H         3.21934295094152    2.73975517071490    2.98971762182223
H         4.73523779333415    1.16647369409706    2.27312596085442
H         4.65863512853705    2.14885107411001    0.83303031967883
H         3.96558551589373   -1.52241619902810    0.03631833876833
H         5.40022947828613   -0.17482601511781   -1.36226046343151
H         6.47079403595174   -1.42153520708156   -0.56639348532915
H         6.45568726994614    0.23762468561796   -0.00236256649909
H         4.75875336060085   -4.44178981903356    2.89767029347925
H         3.73085659857837   -0.51040332389834    3.41198323570029
H         2.03305107628225   -1.34667308073973    1.70284257878248
H         1.50238236979851   -1.05627070721663    4.23145268886171
H         1.98645700226549   -2.73365054533463    4.43502061553330
H        -0.02450764325121   -3.33542077121165    3.75448437700725
H         2.96037519925738   -3.60198954202926    1.02558210989011
H         1.10189312694750   -4.75450633505189    2.45721061930357
H         2.15204821677290   -4.60472110952475    3.85882785622966
H         2.65168027298618   -5.55595849500279    2.48449056908645
H         7.10984871776356   -1.25518468203733    1.97397917206996
