37
 energy: -56.174212080732 gnorm: 0.117567672862 xtb: 6.4.1 (79825abcba525fcdf90b791dcacef51065a7a4e7)
C         3.29451545536441    2.32766841799363    0.36922659890720
C         2.98323424681607    1.32376794393486    1.46388506046391
O         4.16616370200042    0.81851261801751    2.08671235223950
C         4.80952641651917   -0.27838476309217    1.41330657081446
C         6.04077112090367    0.16424719973986    0.61137778368121
C         5.09743939814002   -1.48196888697173    2.33799516012452
O         5.24683092348060   -2.71283292740161    1.60271392287777
C         4.27982476467193   -3.63931245510376    2.13627336347245
O         4.29006809310475   -3.26772550974302    3.52793862573028
C         3.95483397055607   -1.88374031955690    3.28618253948560
C         2.56432866936612   -2.07986884763312    2.63281972756908
C         1.61901547536839   -2.46779142454935    3.77293594240608
O         0.22253675949592   -2.49063196584592    3.50804070272767
C         2.91083362900326   -3.19974015052614    1.60800092019870
C         1.86682742515439   -4.31067647353426    1.58241829304875
C         6.36939808921587   -1.41756770285313    3.19965530039143
O         6.40317462871343   -1.25885338216365    4.41827844080548
H         3.88146527609264    3.15270427085993    0.78487504042229
H         2.33848632506710    2.81443413673868    0.14889592727640
H         3.63832089261779    1.97775472928251   -0.60880037525612
H         2.28979926353781    0.59607816665304    1.03453686247446
H         2.34422667010901    1.83350458078469    2.19237800152935
H         4.00003549124631   -0.65329809687509    0.77610973552204
H         5.60632508853700    0.78656084016384   -0.17724569019453
H         6.38622254753426   -0.80831819638361    0.24638471520301
H         6.75505297804453    0.75398002812096    1.19268525948550
H         4.66366680770323   -4.65161026092532    1.98432842585784
H         4.09878895041261   -1.34613890092853    4.22500136850633
H         2.10917392139825   -1.23460277143727    2.10652800703805
H         1.74986206828398   -1.74918178123079    4.59005671378171
H         1.94137276090158   -3.44494775295017    4.14407199838610
H        -0.03928139012954   -2.79320620054083    2.62214796554328
H         3.02097288981081   -2.77189632863498    0.60370893297184
H         1.82529482411580   -4.99525640569467    2.43490392246977
H         2.04604234866073   -4.98782029665400    0.73887101786286
H         0.88221991524608   -3.85869150086988    1.42941743141590
H         7.28447842132865   -1.62682739435954    2.62332332580137
