37
 energy: -56.180153292034 gnorm: 0.115948030791 xtb: 6.4.1 (79825abcba525fcdf90b791dcacef51065a7a4e7)
C         3.65282041204797    2.53483233764221    1.19147874569363
C         4.26760677590603    1.70113883311847    2.30052434345690
O         5.25939041492938    0.85754848249587    1.71125416005935
C         4.60256303188703   -0.30929378027937    1.18434664140445
C         5.27482894567927   -0.74674860301960   -0.12396064507278
C         4.78919195281791   -1.31680424326311    2.34048223038542
O         5.31249845556896   -2.57539183370476    1.87134475392137
C         4.44402748894911   -3.58396914042010    2.42513248592413
O         4.16994328152699   -2.96934118501830    3.69871966147620
C         3.57781642288573   -1.75870037268543    3.17912610767825
C         2.40082610904367   -2.28257870502934    2.31941715561508
C         1.22838104922872   -2.56450365681668    3.26273935877059
O         0.06136076180983   -2.68113854591450    2.45943124921844
C         3.12128556465350   -3.49407098621098    1.65786173171347
C         2.33755671724907   -4.79563101082018    1.78628882312733
C         5.82138597542144   -0.72087499348040    3.31204185894073
O         5.52566168406413   -0.44628105233393    4.47329920562362
H         4.33136891720556    3.32954297933788    0.86595640790897
H         2.75995530199356    3.03734142690033    1.57846023394735
H         3.38836663927565    1.92608501465051    0.32161127283273
H         3.43922873620049    1.10323643062530    2.68914611348048
H         4.66574297316567    2.32269271982108    3.10924085743490
H         3.56223484389855   -0.05761312487141    0.94721936426696
H         4.86697953329004   -0.13201412472804   -0.93248086176564
H         5.03359097949250   -1.79880133200310   -0.30679755641012
H         6.35656327947583   -0.66674364653727    0.01514991736110
H         4.88442379610592   -4.58405719453908    2.45744014803770
H         3.39052280305161   -1.12433315507709    4.04723804209622
H         2.16214189516228   -1.54306857779912    1.54819855843908
H         1.04339723919703   -1.80230020806002    4.02826785554627
H         1.42709737412353   -3.50913751147494    3.77719962958968
H        -0.38490818584472   -3.53151212924223    2.60981291906613
H         3.35858252364633   -3.25275312864902    0.61419549125243
H         2.53394931371803   -5.16762890893036    2.79631550743763
H         2.75720961986360   -5.50434526256063    1.06252829525877
H         1.28178300734312   -4.67266403760695    1.52672645629216
H         6.78147888788405   -0.58368267932653    2.78981592603119
