37
 energy: -56.183195033228 gnorm: 0.114748316785 xtb: 6.4.1 (79825abcba525fcdf90b791dcacef51065a7a4e7)
C         3.20186051316626    2.17516112304080    2.26081792148295
C         4.06067666641003    1.50800688127370    1.20236183146602
O         3.54961527669406    0.19090267434772    0.98655738733972
C         4.51941636908755   -0.81957224834823    0.65640463146017
C         5.63823288720356   -0.48368661866907   -0.33878707888808
C         4.92912458630575   -1.51183242677871    1.97529514272554
O         5.22650714201692   -2.89974297911145    1.72379901249561
C         4.42456868385724   -3.62256033654933    2.67908987726264
O         4.45399043205445   -2.78073104919983    3.84758111996352
C         3.90216936695853   -1.66840569212727    3.10969992571358
C         2.53950911075681   -2.15853645682647    2.56035207491046
C         1.46318036993102   -2.09961969481266    3.64755543575358
O         0.20506634037443   -2.51489615397207    3.13225113559579
C         2.97946258451241   -3.60064832170527    2.17152656005205
C         2.10097872130967   -4.72128523660903    2.71670720473466
C         6.18972615156454   -0.89691748482846    2.60557091539187
O         6.23414702615228    0.22096672398148    3.11521292708251
H         2.32365462882458    1.56696550408848    2.49916720717868
H         2.96626365588520    3.19811528731351    1.94850868639816
H         3.78865237570100    2.23976038811164    3.18205663388867
H         5.06841215401426    1.57212115974642    1.62079089128280
H         4.11240253258861    2.07883663415156    0.26944067408537
H         4.01198160630810   -1.60030047175667    0.07776083253922
H         5.10850861088554   -0.05157328806884   -1.19354717429673
H         6.15742923131259   -1.35003690680230   -0.76105755937530
H         6.31076458373507    0.29269132580516    0.03649961288854
H         4.75819205834836   -4.65132573222446    2.83879591579532
H         3.84102979963446   -0.75241277359734    3.69990153021682
H         2.30118585253100   -1.50035321824419    1.71855615838605
H         1.41780119342937   -1.11040045458982    4.11722874532024
H         1.73577795540592   -2.73754443849056    4.49327007410606
H        -0.45038694334403   -1.79837287864372    3.17562441242592
H         2.93638866457673   -3.60727491495782    1.07522180773548
H         1.08098809404504   -4.56635933227636    2.35239487182836
H         1.94761559237196   -4.68068535083850    3.80162432200918
H         2.44480427238989   -5.70684108197303    2.38865950505020
H         7.12325650669822   -1.48158785486096    2.60427742015942
