37
 energy: -56.172235304242 gnorm: 0.131272097887 xtb: 6.4.1 (79825abcba525fcdf90b791dcacef51065a7a4e7)
C         3.73606741017527    2.72432200079598    0.81095273204217
C         3.30661298951310    1.27064819636810    0.73753176170245
O         4.00038372281823    0.53234731479722    1.74555596338151
C         4.61651950083354   -0.61371807476285    1.13115753347408
C         5.78083612762270   -0.33988700234205    0.16972137685234
C         5.01651971388557   -1.61981098173354    2.23312582507541
O         5.26880401944288   -2.89760469497458    1.61540561134560
C         4.28199654056516   -3.67709650066069    2.32021366414860
O         4.40872401011621   -3.26035825822366    3.69323346098447
C         3.99396684844527   -1.92220500534582    3.34171499989156
C         2.55087081823311   -2.10926285529977    2.81130249180287
C         1.54942571162611   -2.42078915815050    3.92666116031062
O         0.21716207894957   -2.08412096858008    3.56255662203334
C         2.82467001849483   -3.37977940540966    1.95383373308174
C         1.93352425048367   -4.60561655109958    2.12106245815120
C         6.20912345476667   -1.11122121935865    3.05987673536797
O         6.03355456176617   -0.39479431474368    4.04338137418523
H         3.20298311320681    3.43207060693432    0.16840241318212
H         4.75537191056652    2.92220059554316    0.46261301562678
H         3.75123107259563    3.02538368847266    1.86276566427599
H         3.40679618964537    0.80486345988504   -0.24620206629596
H         2.23113915690240    1.22229287557338    0.93723620284000
H         3.82592665013624   -1.18582377073507    0.63164449270433
H         6.51421861281105    0.34331608555748    0.60941244269793
H         5.37491886610897    0.21773526999392   -0.68041309491912
H         6.22845560916889   -1.30316490866112   -0.09034435977980
H         4.42849912967392   -4.75327606774095    2.19554069623366
H         3.91825692734235   -1.17601095700478    4.13454629911107
H         2.17876364958994   -1.33444122075064    2.13320868597062
H         1.85750877939442   -1.81535198745130    4.78674118696363
H         1.48993969654269   -3.50436327797367    4.06384430584303
H         0.10867049165950   -1.13177935319627    3.40075156892632
H         2.68412373746972   -3.10838086358034    0.90009137408869
H         2.33516598039132   -5.23856130053720    2.91803877982814
H         2.03319034089117   -5.22005168841379    1.21842748938654
H         0.88203040423644   -4.34478717402162    2.27429546986854
H         7.18707916145991   -1.50107175221138    2.73593344329284
