37
 energy: -56.173457002222 gnorm: 0.131682676320 xtb: 6.4.1 (79825abcba525fcdf90b791dcacef51065a7a4e7)
C         3.77740684753391    2.48278289694009    0.52057621874518
C         3.31182277468374    1.60583055377125    1.66825880890569
O         4.47929098758231    0.90545187471320    2.10300757357308
C         4.64402774909930   -0.29978232609257    1.33434190202279
C         5.79256525180637   -0.12655527267553    0.33143107477265
C         4.89863128583576   -1.48746962248527    2.28887482742550
O         5.08474447777914   -2.68775023481226    1.51255612367316
C         4.31448484749971   -3.68460583333696    2.21336271172567
O         4.40486269444530   -3.23535712461158    3.57898396669087
C         3.86026345071851   -1.91941077254591    3.33827727921112
C         2.48776972998553   -2.20932746388298    2.68172302588880
C         1.37779239521239   -2.47885594551424    3.70116924592703
O         0.23673031856176   -2.40304862729048    2.85673182200308
C         2.84260522155297   -3.47374729981351    1.84520333204500
C         2.11699295663805   -4.81029058305473    1.95439033617619
C         6.17653992075022   -1.21330513370973    3.09897829697620
O         6.14165781527118   -0.46521573890323    4.07392383975897
H         4.50505675478144    3.18485626605434    0.93959467554272
H         2.95277575969913    3.08655931830155    0.12698282051243
H         4.16686846230012    1.94914783588307   -0.35162318110853
H         2.62374523866680    0.85012971218376    1.28071541531634
H         2.76839036956102    2.14083510982763    2.45395303011307
H         3.74488041662979   -0.50315918446721    0.74102313089752
H         5.57142304884033    0.43706229150083   -0.58036710682305
H         6.00453241018301   -1.15050842697069    0.00734790070685
H         6.64455701719773    0.29380119237971    0.87301410948423
H         4.79463825127649   -4.65931331142163    2.09266951091935
H         3.66171486937515   -1.30837963364697    4.22051217172510
H         2.13131424171546   -1.30987226985784    2.16933318927251
H         1.40820302383815   -1.70695275193704    4.47863155742060
H         1.46539023948259   -3.44976198027751    4.19731313268451
H        -0.56488505986554   -2.66327442105208    3.34108827557337
H         2.79938753772966   -3.22689707588847    0.77703640985092
H         2.09796542848603   -5.22532810770427    2.96656037698138
H         2.41461664792284   -5.62336400082022    1.28167531523201
H         1.06324209864546   -4.54243398821309    1.83186034000873
H         7.06411099575970   -1.66630843422100    2.62958970712306
