37
 energy: -56.169512608462 gnorm: 0.137504616434 xtb: 6.4.1 (79825abcba525fcdf90b791dcacef51065a7a4e7)
C         3.17309660539026    2.76649756181730    1.56649458423510
C         4.08478940566844    1.76644981832522    0.87968308116033
O         4.19132142557405    0.55990826138533    1.63825230153676
C         4.65287025450988   -0.57876932662470    0.88927913944263
C         5.85236835050313   -0.44195563149574   -0.05806593674857
C         4.95192335720588   -1.57980607443516    2.02728190245488
O         5.15880560221466   -2.95496598120299    1.64765363152999
C         4.25617026061180   -3.74476578506059    2.44741400747142
O         4.34269300652614   -2.98619484885046    3.66888769544962
C         3.87436816497277   -1.73779773524849    3.11353245314828
C         2.49754494656148   -2.24972929413090    2.62247402100746
C         1.39711614481983   -2.24675035788757    3.68690516254340
O         0.09973210279432   -2.65594694580532    3.27435596372672
C         2.78474561639324   -3.66070841676569    2.02994988953396
C         2.06159996326645   -4.89170955917602    2.56518778281619
C         6.19409713310467   -1.04216003990815    2.75695694862946
O         6.10896694417318   -0.17739493456201    3.62661642538477
H         2.66570618184972    3.48117757363302    0.91094495632155
H         3.77312856384953    3.26399446319702    2.33586877692523
H         2.34133801027724    2.29180199875542    2.09566401723202
H         5.08717840430326    2.13759234640718    0.65122329268551
H         3.56846912599665    1.54560187207211   -0.06026565907853
H         3.79419136784932   -0.86875851334651    0.27248725667771
H         5.59128779741215    0.24777874474533   -0.86679830676841
H         6.17342940963554   -1.36462946778334   -0.55206278070825
H         6.72909590955537   -0.02473883990100    0.44510470857422
H         4.77396114302203   -4.67657254512654    2.68989624728025
H         3.95691129629635   -0.90355979188990    3.81235493190525
H         2.07619953751686   -1.64670297823992    1.81164054013599
H         1.45492644680971   -1.24748484454265    4.13337290587957
H         1.70510668751691   -2.86777207769935    4.53305206010458
H        -0.41640529711699   -2.63030360154565    4.09767270909824
H         2.72187782455944   -3.58885246586951    0.93694128001662
H         1.02353106301689   -4.72854657453085    2.26039734013208
H         2.00113048402361   -4.81480522392614    3.65726971480005
H         2.33780817456856   -5.89817366438070    2.23672059772055
H         7.20221229296228   -1.40608362064559    2.50282384370167
