37
 energy: -56.179383755028 gnorm: 0.125280071173 xtb: 6.4.1 (79825abcba525fcdf90b791dcacef51065a7a4e7)
C         3.61038267040333    2.92692822081953    1.03166734921216
C         3.24655408976375    1.45537885716606    0.95983052014541
O         4.20915891489270    0.65946007811967    1.65439809552289
C         4.59277674119713   -0.60185827112428    1.07778023035239
C         5.81186446312970   -0.41377856138637    0.16485772807272
C         4.99760670749036   -1.60221617384312    2.18320068750095
O         5.08170226594849   -2.94347534071157    1.66172735878184
C         4.30720304710330   -3.75954598039772    2.56302121637079
O         4.28763079269554   -3.05662790681794    3.82017559784784
C         3.89768581553568   -1.79194050949691    3.24159831826432
C         2.53093073687734   -2.21121619401559    2.64574353281156
C         1.47026414716667   -2.19002924077246    3.74960202855008
O         0.10538423520630   -2.26967138703213    3.36023845345114
C         2.89664590174785   -3.57730042651057    1.99420883666109
C         1.97005479000663   -4.75807305255358    2.26251460215299
C         6.35374475802574   -1.20408339374361    2.78889412697817
O         6.51923841038982   -0.68454073634073    3.89073837425063
H         3.31704330872479    3.51373721765590    0.15555942375253
H         4.64230633295220    3.13362496640113    1.33479797814348
H         2.98949474087757    3.44246342149462    1.77051791782806
H         3.14602658426812    1.13314385883511   -0.07977670573784
H         2.29168832334328    1.17988322198282    1.41939292679657
H         3.72368580922945   -0.99975573125632    0.54092461960631
H         6.60949468472171    0.08343347438677    0.72567037909068
H         5.67364839874368    0.07262795980181   -0.80609289247504
H         6.14699796861561   -1.42330588689550   -0.08899629467699
H         4.74580181079476   -4.74331272635392    2.75011208086746
H         3.90558159455094   -0.99015190440298    3.98199811610801
H         2.13010121497696   -1.44034443011437    1.97962338367712
H         1.65082284074381   -1.33358573747548    4.40923081285468
H         1.52214956675029   -3.10508425993181    4.34665557547600
H        -0.15575750583698   -1.38316626412483    3.05887568216214
H         2.97077966939222   -3.50377808303046    0.90201741202868
H         1.78357668248196   -5.03272316056151    3.30505940320301
H         2.37259200513376   -5.61884094454295    1.71547144967815
H         0.99050206514754   -4.57728294808539    1.80980822944027
H         7.18339496305169   -1.52576591996480    2.13964758082488
