37
 energy: -56.175148677066 gnorm: 0.129989556479 xtb: 6.4.1 (79825abcba525fcdf90b791dcacef51065a7a4e7)
C         2.11259274935065    1.50637968779544    1.59111552143368
C         3.50548166883658    1.39352194994564    0.99941216826126
O         4.21355504387481    0.52002406993904    1.88154161509433
C         4.83863754435233   -0.55292418332184    1.15447317642345
C         6.10870473248150   -0.00613655331403    0.48894423966492
C         5.14951876664828   -1.66909332062129    2.17627379432493
O         5.10203508031525   -2.93754410126874    1.49307520732145
C         4.21681831092345   -3.83509770743747    2.19231739846387
O         4.41733884432522   -3.38672564152430    3.54644736631156
C         4.16410900068805   -1.98372606551206    3.31469386516201
C         2.75519459814418   -2.04440626355437    2.67427812991134
C         1.62318987674920   -1.63785878358229    3.62151110822409
O         0.32829268051759   -1.44473290678665    3.06762700478195
C         2.77767159476186   -3.39709253135980    1.90345676257612
C         1.69864272723366   -4.41688339919002    2.25059678065500
C         6.52877468531789   -1.50022275940807    2.83477216376815
O         6.85090196759706   -0.54306467700372    3.53581119423342
H         1.39522703943542    0.80958478837379    1.14634459588286
H         1.64415853306628    2.49610921514019    1.56913806150832
H         2.25305786864368    1.35136086109100    2.66508816321872
H         4.12403987983478    2.29453416020172    1.01635550553363
H         3.40736390728890    1.07326900249543   -0.04302488900322
H         4.16650412685942   -0.88482038765476    0.35451266837973
H         5.86558934959428    0.32035513735312   -0.52704919074017
H         6.80780371073912   -0.83899880826548    0.36229068558124
H         6.52808179210221    0.84460099581070    1.03325133301233
H         4.50638840721628   -4.87469054911783    2.01748981497785
H         4.22555618381242   -1.50609115933421    4.29408558060339
H         2.66035679068609   -1.28963562239679    1.88690872249438
H         1.93393068341348   -0.77057601586074    4.21520104164337
H         1.52302983821157   -2.48898895411336    4.30124345623966
H         0.38142452471663   -0.77331436011732    2.36671332106884
H         2.61697667729345   -3.10521249675290    0.85810200953003
H         1.46935289208778   -4.63793853991896    3.29733799887455
H         1.98224109255073   -5.40428187393710    1.86741279565632
H         0.75730674409781   -4.10947769339250    1.78525827964388
H         7.17529725752683   -2.38661329511673    2.73658647876215
