37
 energy: -56.177221103505 gnorm: 0.119194899180 xtb: 6.4.1 (79825abcba525fcdf90b791dcacef51065a7a4e7)
C         3.12669864417414    2.79512028091874    1.50501106981384
C         3.21067807462624    1.28866350418124    1.66787513066985
O         4.51745470704888    0.90273433445779    1.23669962663548
C         4.61945865512292   -0.49142324383853    0.89538682021162
C         5.80913456508046   -0.69724462363324   -0.05186444417683
C         4.93507993844548   -1.48492454123666    2.03551646076740
O         5.10850560977247   -2.83094316009485    1.54957425222645
C         4.42087049030382   -3.68675289624928    2.48386462518069
O         4.46688060959256   -2.91386540888629    3.69854234919747
C         3.88858717541416   -1.71426584945863    3.13927455517984
C         2.57144159375759   -2.22957155193658    2.50805211629818
C         1.46745829703743   -2.14669669204880    3.56555792250479
O         0.12552965194804   -2.24107789761196    3.10603244412117
C         2.95964170278056   -3.65804546057693    2.02515053720793
C         2.18420618180383   -4.80197641385386    2.66928146754478
C         6.24466486439903   -1.14377898574957    2.76564750174275
O         6.18404950974700   -0.29861006941426    3.65637114489010
H         2.96240015188639    2.99367013469875    0.44127151949910
H         4.08378388295739    3.17417793137783    1.87888445006499
H         2.26353754722032    3.22552446468796    2.02161892876461
H         2.46532247544547    0.74515768932194    1.08155542549901
H         3.16937184979206    1.04743704108088    2.73509940564426
H         3.74051569340397   -0.94542795946148    0.42295244273788
H         5.82873971484085   -0.09585745173733   -0.96613665306770
H         5.84887279472708   -1.75836635892285   -0.31810039358903
H         6.72175339334609   -0.54443080120900    0.53095330424291
H         4.90247151438644   -4.66784647127693    2.45769850830038
H         3.96725409301874   -0.90706140682137    3.86958375243492
H         2.30251768409271   -1.55127196094902    1.69183332464681
H         1.75457931111005   -1.24987502191823    4.12634256041207
H         1.45665872719036   -3.02219673318436    4.22120547956849
H        -0.03712695951321   -1.77476733820871    2.26877314164610
H         2.97716628135134   -3.64964875430481    0.92815201151614
H         1.13247440676720   -4.66381405808482    2.40118105987828
H         2.46096368324022   -4.84107844062650    3.72951260701523
H         2.48109446502185   -5.76698004655854    2.24764541134351
H         7.10443425170560   -1.78762697523504    2.52156467278750
