37
 energy: -56.178293165192 gnorm: 0.115797511190 xtb: 6.4.1 (79825abcba525fcdf90b791dcacef51065a7a4e7)
C         3.26046067350686    2.30843685119704    1.45606879143755
C         4.36030615832178    1.77135944736841    2.35321818667045
O         5.28824566614623    0.94481550953994    1.64733420451304
C         4.70543256501632   -0.29291605202979    1.20132515992065
C         5.55658560782642   -0.68116948133014   -0.01513442091812
C         4.77070840504127   -1.35477075618131    2.32148623467891
O         5.19775776859081   -2.62524845197036    1.79092270736062
C         4.32571578711443   -3.58858047247115    2.41517030288364
O         4.05436287839360   -3.03323248668915    3.71627375213489
C         3.57393856709419   -1.77646962368475    3.19093344513774
C         2.41623068396748   -2.20803183036018    2.25695232523128
C         1.24098222911834   -2.47663239618662    3.20067405802988
O         0.23413153642218   -3.00647839416931    2.34840715229645
C         3.03386044458711   -3.47722921449473    1.59960732468601
C         2.32155094671874   -4.81179099082163    1.79024565782275
C         5.81736489261024   -0.83118255780829    3.31890784318987
O         5.73473669592006    0.03159441938923    4.19078040635167
H         3.72541902078703    2.18134658261778    0.47340930360863
H         2.97067555300405    3.34153602466077    1.67563391144313
H         2.37784679470899    1.66325203258441    1.41239029629035
H         3.96365541433207    1.14405101916085    3.15563744195416
H         4.95054087971941    2.58631132750196    2.78488990280077
H         3.66531374318248   -0.13678440586165    0.89208257108534
H         5.81342447605276    0.14641787081532   -0.68377298385152
H         5.07741316055777   -1.47105947367607   -0.60242276860008
H         6.52021787057096   -1.05463812221072    0.34240683219608
H         4.76981396052568   -4.58737008467326    2.43427361948493
H         3.28989259402393   -1.06175952169975    3.96528889385971
H         2.15706845241203   -1.42268106017275    1.53953848233655
H         0.91140050147432   -1.54660135613539    3.67777483092731
H         1.51695961759812   -3.10300248849444    4.05389598791021
H        -0.65897383978627   -2.83042273828881    2.68939548922774
H         3.13055612089129   -3.30957525393615    0.51964182642918
H         2.18250475616203   -5.11043152029982    2.83359908853109
H         2.90101373229858   -5.59915812788332    1.29376844349373
H         1.34393626981759   -4.86793341635445    1.30211739764229
H         6.71536064785999   -1.43191616421948    3.10433195346363
