37
 energy: -56.174564013705 gnorm: 0.120486021090 xtb: 6.4.1 (79825abcba525fcdf90b791dcacef51065a7a4e7)
C         2.41543938546828    1.73838033180684    1.81582818464874
C         3.31639819225942    1.17971844401375    0.72993712407185
O         4.31916258422729    0.62576203101835    1.58440460671303
C         4.92156209229687   -0.56076211408491    1.03681909336879
C         6.24514104138568   -0.33841593573039    0.29272427931012
C         5.14407400123488   -1.54412569214308    2.20730691343692
O         5.16432941960238   -2.87466337757744    1.65301313282190
C         4.25581948247598   -3.64131245792282    2.46849442843504
O         4.27559862248312   -2.97657161345836    3.74624337446016
C         3.96991482203363   -1.67831366726116    3.19187294090656
C         2.61603814187722   -1.97589449522019    2.50099104383616
C         1.48329056950359   -1.88071611117671    3.52655913232141
O         0.20478005122061   -1.78402301668137    2.91263302068165
C         2.85968397624599   -3.38781837842941    1.89145136416075
C         1.91895115564558   -4.55646000740165    2.16363040109539
C         6.44400968529090   -1.31528859595212    2.99615738156434
O         6.76759815517467   -0.47561644992037    3.83378169148701
H         1.72398581526761    2.51512060810487    1.47447151782570
H         2.98330570647115    2.07878082856963    2.68825784090452
H         1.84712267023785    0.91747939522869    2.26339525841880
H         3.75064937024113    1.96871527845381    0.11055497280804
H         2.70418335622770    0.54725276129133    0.07875034733496
H         4.16211200590393   -0.90199514764152    0.32362148166535
H         6.08810322289807    0.33972245750302   -0.55191292540468
H         6.47784549776796   -1.34744326955145   -0.06245528258488
H         7.06335766331542    0.02575759333905    0.92025986415360
H         4.49467331877491   -4.69042367918311    2.66210048409832
H         3.94894515263441   -0.83539416955549    3.88481306191053
H         2.39801558898290   -1.26094836213333    1.70102747480151
H         1.68624808460356   -0.94635769629541    4.06227323202727
H         1.40503362031796   -2.67717640484365    4.27222495480643
H        -0.31871983403083   -1.52077641859462    3.68823275799797
H         2.99886554190078   -3.22533362791895    0.81534236409141
H         0.87785406138517   -4.33503946411767    1.91026076405649
H         2.11834105117926   -4.93810714295668    3.17199684512192
H         2.18949841101617   -5.34546502431308    1.45551537180675
H         7.21360249863511   -2.02495542838488    2.65349144759384
