37
 energy: -56.179397990813 gnorm: 0.124018174629 xtb: 6.4.1 (79825abcba525fcdf90b791dcacef51065a7a4e7)
C         3.80718836779233    2.55659281951609    2.32911060880275
C         3.40278490238653    1.48780856648973    1.33053796483756
O         4.60894703145607    0.87109649522575    0.87517223399635
C         4.52833634702025   -0.54801619811887    0.65112830463336
C         5.58236127095483   -0.94315300905980   -0.39188392960671
C         4.77297578512722   -1.38394741268601    1.92703102848556
O         5.25284822388014   -2.72014503225453    1.67746985449198
C         4.48563364790073   -3.55219391100431    2.57034572497112
O         4.34795855852869   -2.72497929955980    3.74153124912816
C         3.71637339290219   -1.64962487618214    3.01286403887161
C         2.42869312772036   -2.33727369062343    2.49529968630677
C         1.34861854740999   -2.30178509465702    3.57980204373445
O         0.10866242832902   -2.66160822449187    2.98492380872072
C         3.01836003738184   -3.74195623387387    2.17344433712365
C         2.31242923581804   -4.86810140622749    2.92060006773863
C         5.93120090127168   -0.76350859915738    2.72581420708038
O         5.95343372062432    0.18122158681523    3.51217538117586
H         4.37782429719831    3.28032829200204    1.73873829224030
H         4.37508684473430    2.02708547323284    3.10150393585064
H         2.97347649878921    3.03750807419341    2.84951771654839
H         2.92568292793626    1.76480110368367    0.38694208730639
H         2.77404653489778    0.71477579811227    1.78437986346209
H         3.54287445662985   -0.82161014353447    0.25632903486689
H         5.66121639763940   -0.06055954570444   -1.03434421485041
H         5.35316643523269   -1.81157684359848   -1.01778313078777
H         6.53621258676916   -1.10183640073710    0.11888897815772
H         5.08826443061505   -4.45403490000985    2.70704900586253
H         3.61853857865177   -0.83163977175910    3.72871858731614
H         2.15369668220204   -1.73961615587630    1.62019629272055
H         1.27361310423621   -1.28562848597384    3.98354320823928
H         1.61026265331259   -3.01859470102274    4.36352203530350
H         0.00608464593080   -2.10054035443226    2.19778563966321
H         2.98186683778467   -3.80393494214664    1.07863372724449
H         1.22308053454754   -4.81102209959143    3.00526263400114
H         2.59664813883676   -4.90172941901040    3.97904351211633
H         2.53808513377662   -5.83041951400183    2.45137208068765
H         6.80848853075867   -1.37839315557910    2.46968246971048
