37
 energy: -56.178934681686 gnorm: 0.123329218589 xtb: 6.4.1 (79825abcba525fcdf90b791dcacef51065a7a4e7)
C         2.76346184770312    2.51106350512935    1.79810779003977
C         3.78959785823481    1.65276974176521    1.08161217829354
O         3.72903285390618    0.29919739543612    1.53624673402791
C         4.46312954624170   -0.74345220011794    0.86949456226393
C         5.64826970694215   -0.30228114928586    0.00013444388408
C         4.89992181939303   -1.60254563504455    2.07685869823270
O         5.15996135882035   -2.95231207011989    1.64270157793831
C         4.38186051132286   -3.73937422772351    2.56641316283556
O         4.48617168245722   -3.00450181066800    3.80091536209507
C         3.94992122307884   -1.77083117217912    3.27485922966438
C         2.57008965447636   -2.17925147691084    2.70204869861298
C         1.51328504378735   -2.06719163940075    3.80412514216254
O         0.24678803225438   -2.25327541237215    3.18590016727160
C         2.92584831926871   -3.57834493929895    2.11860700659979
C         2.15914341886233   -4.83225329544265    2.52439062662154
C         6.25376228054217   -1.23693601597928    2.70767552990651
O         6.87739357887264   -0.18383943978614    2.59172335836964
H         2.88756100886231    2.52586860981415    2.88546149238737
H         1.73835687593022    2.25874229743259    1.50660828194415
H         2.97033259833995    3.54479789870298    1.50523202202105
H         4.80610555043824    2.01994081281199    1.24477421449442
H         3.69118185285840    1.68160911322374   -0.00850095322424
H         3.75074241493675   -1.30565711109903    0.25444542115674
H         5.33504482087676    0.12863187868044   -0.95597678740733
H         6.33247822923574   -1.10168317597504   -0.30195018717983
H         6.25081624775175    0.41450358965239    0.56498752837015
H         4.78812225081526   -4.74410743368451    2.71004948896336
H         3.87731001832694   -1.01303230308784    4.05689981876873
H         2.27852118371007   -1.52750484861965    1.87208624536387
H         1.55139284292303   -1.12216121948884    4.35790514380597
H         1.66234156145845   -2.81343829730083    4.58986603264839
H         0.29988507049688   -1.53291712287991    2.53538460784182
H         2.84261720776112   -3.51212181216361    1.02660405118461
H         1.07920103082840   -4.67543237274793    2.60337179062523
H         2.43227897394827   -5.22544730249346    3.51080290816930
H         2.38210076498392   -5.60205907768530    1.77951432463742
H         6.60190714498958   -1.83406887715210    3.56531621734366
