37
 energy: -56.174174525442 gnorm: 0.139936879160 xtb: 6.4.1 (79825abcba525fcdf90b791dcacef51065a7a4e7)
C         2.43091212223378    2.25517743028930    1.60935863884540
C         3.47859555248640    1.50838348336128    0.80459314586663
O         4.19523550590901    0.61817966510503    1.66277911005111
C         4.71890374574482   -0.54293987560211    0.99334084087796
C         5.95077396649605   -0.25115782988951    0.12596829089492
C         5.03460389009965   -1.52720762039155    2.14142952745752
O         5.09070265685143   -2.87698537936829    1.63850276512179
C         4.29378496948674   -3.67134712635592    2.53964785609911
O         4.47060860957438   -3.02800132247535    3.81626586861371
C         4.01250468564350   -1.77444206722888    3.26402241087324
C         2.61562323567626   -2.10859124013300    2.68443571801156
C         1.45313418174963   -1.94158217967974    3.66662360558788
O         0.22155164869771   -1.62603776101623    3.03063606774059
C         2.84044170361473   -3.52509870720521    2.07830519863089
C         1.99969057276297   -4.70493499650504    2.55360172235931
C         6.35441311500870   -1.15207566410510    2.83559369441956
O         7.31525801824642   -1.85573939012361    3.14056538656502
H         1.88007646282704    2.85536692420413    0.87839316907439
H         2.91448350885697    2.79816712256004    2.42838187975610
H         1.74664894814832    1.43390971309079    1.84277193587021
H         4.16484810311947    2.16394332465510    0.26235420449841
H         3.09417026639236    0.82942145407337    0.03641879883297
H         3.91920113114107   -1.03741884223565    0.42958421348206
H         6.28646546039285    0.78004398918559    0.27388242917361
H         5.57315863423528   -0.39645297468976   -0.89125146183614
H         6.73223859704110   -0.98077158999423    0.35592155488080
H         4.64651677659966   -4.70509029525652    2.58573633763086
H         4.02459604925599   -1.06735568676356    4.09528750153817
H         2.34176843848550   -1.43430567143027    1.86653227988076
H         1.67476573441792   -1.23072031303654    4.47083865714793
H         1.12936780722102   -2.85508081232877    4.17375894183961
H         0.33346797660090   -0.70072078301888    2.75464860742896
H         2.74905166141530   -3.41762653336408    0.99024225394655
H         2.11743894582124   -4.86696696467356    3.62923518768523
H         2.21587736001039   -5.69186322388442    2.12763259830336
H         0.94964527817340   -4.46553091303620    2.36061936390421
H         6.29368346240574   -0.11082519524894    3.18975386188916
