37
 energy: -56.178196617906 gnorm: 0.122907235506 xtb: 6.4.1 (79825abcba525fcdf90b791dcacef51065a7a4e7)
C         3.00758417392716    2.23207674875359    2.16655476631957
C         4.07152059937848    1.45586484173113    1.41254971184233
O         3.56829240309051    0.16241968040901    1.07155147247875
C         4.51591946643748   -0.87468339577080    0.76011166579829
C         5.59948364767852   -0.37629002824991   -0.20553259977667
C         4.99419122721784   -1.65584916225646    2.00413472574046
O         5.23741066885414   -3.03846554924917    1.67672270076119
C         4.37072426745689   -3.70274225392609    2.61786137766830
O         4.36148584272634   -2.94864740621035    3.84512238832427
C         4.00569793744800   -1.71627692114448    3.18110370322671
C         2.60056273809539   -2.06425614276600    2.63032265245422
C         1.56775480158568   -2.02932492976367    3.75994802472248
O         0.23677916290017   -2.20454809919729    3.29235347270806
C         2.96259629148981   -3.46811067393207    2.06238327017738
C         2.02477614370800   -4.66170946558609    2.20590408810313
C         6.24532859809234   -1.03270466319296    2.64509533600352
O         6.24462401603380    0.05007612003028    3.22729684637263
H         3.55307768902198    2.71189952829302    2.98519070181403
H         2.34571214622353    1.43522899477254    2.52213490782019
H         2.43095815948074    2.97542454166760    1.60788221669736
H         5.01003664308319    1.44099844804949    1.97263092088761
H         4.26056310489076    1.97383975630081    0.46659570544213
H         3.83869081736949   -1.56479744132298    0.24343070084430
H         5.17553893608563   -0.25354085177255   -1.20710540328497
H         6.38924693726069   -1.11046813953741   -0.39446772351414
H         6.10924009990857    0.50879025144618    0.18521407616780
H         4.78685841006218   -4.68535423762904    2.85550582211102
H         3.99689636243156   -0.84166557395812    3.83386441321664
H         2.30450597732949   -1.38868645841679    1.82126176439643
H         1.64432378498879   -0.99580331110874    4.11656722742388
H         1.66706605943989   -2.69265975887453    4.62401680091095
H        -0.09312318797081   -1.46372163466675    2.75639970551149
H         3.07290366413968   -3.25632947040787    0.99151241197835
H         2.08100223325728   -5.22761016909741    3.14062405204550
H         2.32622775970041   -5.35795245728311    1.41433199815794
H         0.96864064972190   -4.43664899554054    2.02961673614554
H         7.14754168939091   -1.65257985734631    2.76792179509221
