37
 energy: -56.173446986215 gnorm: 0.140032987350 xtb: 6.4.1 (79825abcba525fcdf90b791dcacef51065a7a4e7)
C         4.02532877613022    2.73516228910026    1.98726678202835
C         3.67046785806131    1.28177257785952    1.73286283385853
O         4.55203688770122    0.70319263113858    0.76818664119501
C         4.65445244579528   -0.73187575093808    0.74240747807549
C         5.85507071533243   -1.05074520520906   -0.15859994533520
C         4.77444399317117   -1.40963717991077    2.12544726851046
O         5.32983956863263   -2.73781580954897    2.05155620972747
C         4.28873034357666   -3.46528239624816    2.73349085551086
O         3.98016058421350   -2.71145069150994    3.92152977254847
C         3.59810530914856   -1.58604955102161    3.10070762963399
C         2.33095467730053   -2.18402492617781    2.44070070810866
C         1.29557277923310   -2.40175582269532    3.54729168464729
O         0.00168536438129   -2.85827775775624    3.17542195969468
C         2.99265484748235   -3.49277616056830    1.91748548350075
C         2.21884759674517   -4.80647428341528    1.90325245003723
C         5.92145002007811   -0.63252817939433    2.79250300468101
O         5.90787869442291    0.15870275587061    3.73332331802539
H         4.98309215652708    2.78092209626748    2.51504819749429
H         3.27079622157076    3.20122395245776    2.62987499620222
H         4.16648257105043    3.26096047272818    1.03816699639947
H         2.66094611240760    1.13570447115031    1.34011061073869
H         3.62795934054640    0.82911215477495    2.72893293763668
H         3.70078293572490   -1.09203180944991    0.33909934693283
H         6.69748725705098   -0.53318579573206    0.31087979854400
H         5.75172444409704   -0.67051227831641   -1.17996303141561
H         6.10628568561953   -2.11465837510882   -0.18829107085637
H         4.64835272554841   -4.47653475429831    2.94135922412980
H         3.41028629933399   -0.81161955793421    3.84642966598172
H         1.84183926204987   -1.68904962536362    1.59548525545862
H         1.16412979329911   -1.38775983323734    3.94193316492950
H         1.71916926837385   -3.08121229054026    4.29254038466442
H        -0.50894796877924   -2.14486239953426    2.75685537736996
H         3.36242318465528   -3.34079851759441    0.89574305325581
H         1.86991760533095   -5.04266790304347    2.91298847596127
H         2.85715361252967   -5.60237391565924    1.50160213685530
H         1.35914168281542   -4.79896344857834    1.22649475830929
H         6.85596232847197   -0.88709204681717    2.26790397733650
