37
 energy: -56.177333466991 gnorm: 0.120685575656 xtb: 6.4.1 (79825abcba525fcdf90b791dcacef51065a7a4e7)
C         4.17203937409350    3.12486829132625    1.08718342639020
C         4.48627497399747    2.09593368979395    2.15748190331530
O         5.17575900260445    0.95891778416315    1.63372108337099
C         4.45165399944758   -0.26070809216155    1.39131802262551
C         4.78986720677205   -0.75573314010717   -0.02131715908103
C         4.74105362690941   -1.37654240970217    2.41977259190854
O         5.27994902837470   -2.58378763688268    1.84520050731122
C         4.40517132837446   -3.58780770285363    2.39734047039149
O         3.99897239590431   -3.15920554781930    3.71119609061198
C         3.53023553392572   -1.88380678118943    3.22141391334756
C         2.41025329512365   -2.37174340148351    2.26935727940939
C         1.29480901416681   -2.82559051540699    3.21475283414168
O         0.14184408180178   -3.24228119424628    2.49511075916361
C         3.08303832775567   -3.61907511207728    1.62441164408901
C         2.32329755844163   -4.93680471707077    1.73007892674628
C         5.83089586179409   -0.79045767712529    3.33258847414686
O         5.55706492887554   -0.16612677534259    4.35562358890276
H         4.99710153879630    2.97296160319298    0.38422208270579
H         4.14863408779583    4.14450858709894    1.48626238837726
H         3.23280277191517    2.95673549082295    0.55169814735809
H         3.59653602638759    1.92896567822857    2.77002628308143
H         5.26304579802842    2.48040160243360    2.82656752803924
H         3.39229058612841   -0.03642987266749    1.56250118647716
H         4.40965615575700   -0.12937021962297   -0.83436918933197
H         4.37602075358802   -1.74682538533945   -0.23323060403473
H         5.87447739524479   -0.61853438779785    0.00512063305116
H         4.92524379825884   -4.53745412698427    2.54855259888567
H         3.19814414339731   -1.20935795606071    4.01258588356573
H         2.08619955846237   -1.59686005146251    1.56709772781379
H         1.01719950303397   -1.96832847803625    3.83864525805687
H         1.67434114433022   -3.58835998600572    3.90077671854769
H        -0.34228568770387   -3.96041513395329    2.93648119659170
H         3.34445864760012   -3.32796043819882    0.59937747671371
H         2.11839930072566   -5.23278358749898    2.76328732841305
H         2.79721057349396   -5.82277531905472    1.29112984614629
H         1.36339194369857   -4.79986852323722    1.22314568004345
H         6.86697623710257   -1.05815736973567    3.07144795821375
