37
 energy: -56.179647749398 gnorm: 0.126858109901 xtb: 6.4.1 (79825abcba525fcdf90b791dcacef51065a7a4e7)
C         2.52247225646514    2.26981877346542    1.59430302913081
C         3.23485477297339    1.19372074360245    0.79585863739247
O         4.32155551022833    0.71673684548561    1.59215423272535
C         4.86080292484958   -0.52193511537697    1.09669627371739
C         6.14421799734745   -0.23644511942492    0.30529412683442
C         5.09159584159732   -1.61871190033119    2.15988605649083
O         5.07534280453056   -2.89115027454565    1.48267204111402
C         4.24698128203113   -3.74336974241692    2.29857033474191
O         4.48734884371525   -3.13657295446809    3.58267900137060
C         4.04798070048613   -1.79524840180059    3.27600825193506
C         2.68982165374942   -2.03489412861427    2.57114787996571
C         1.50365243002357   -1.75881573918633    3.49891357627985
O         0.27799442624129   -1.98368797246471    2.81477988500305
C         2.76073209004926   -3.49175264534399    2.02620207117090
C         1.94776030416912   -4.62711941544377    2.63841289667696
C         6.42670262474046   -1.39142003026132    2.88811167037592
O         6.62844261101598   -0.62931151171586    3.83143817130515
H         1.72139168472483    2.64402058364677    0.94916677014322
H         3.25361039398910    3.05465462022933    1.81554470337773
H         2.07617046296586    1.94555626703007    2.53920887430198
H         3.56652664047365    1.45603116586502   -0.21206564123985
H         2.53689972541930    0.35446336720415    0.71001067856672
H         4.14488415881141   -1.03671346057645    0.44529867562814
H         5.93946402238751    0.62632688082800   -0.33630142344699
H         6.41386340456213   -1.07632848834003   -0.34303242500687
H         7.00602415722938    0.01546402845682    0.92958062707304
H         4.72164498065745   -4.72818184501030    2.29568788465604
H         4.05719519043695   -1.15454779476882    4.15948820908758
H         2.64829725413896   -1.28711958896588    1.77256633598091
H         1.66520755810795   -0.73470600152217    3.85430938773131
H         1.56910265352586   -2.43263241181564    4.35808645268946
H        -0.43678987562063   -2.17432666301031    3.44537178452220
H         2.62194712182285   -3.46467100980380    0.93818152982246
H         0.89158653724225   -4.35243835788827    2.55996749383497
H         2.06719542354443   -4.67020600824884    3.72749165791321
H         2.14218347055044   -5.58765671939453    2.15187477310339
H         7.30831080976348   -1.91320465345810    2.48335512466241
