37
 energy: -56.176504669497 gnorm: 0.115152965589 xtb: 6.4.1 (79825abcba525fcdf90b791dcacef51065a7a4e7)
C         4.21944042534885    3.06243833253025    1.46937011757230
C         4.76596404198269    1.90269800419120    2.28134522223283
O         5.20463125064664    0.89498074621228    1.36778306829396
C         4.35526801960560   -0.25492424231206    1.20384646892271
C         4.71185650584437   -0.76035030560359   -0.20056276306576
C         4.64541721587119   -1.31857181341794    2.28598530554056
O         5.21726301012873   -2.54633135144539    1.79244576217320
C         4.47552043434903   -3.58860387983771    2.45700334401633
O         4.10127413542439   -2.99334258882783    3.71418975426316
C         3.48237434717500   -1.80954932495206    3.16479062263276
C         2.36302646391549   -2.44706713886700    2.30485717423332
C         1.12477566733489   -2.63735199173876    3.18490973527341
O         0.00647078003162   -3.01321066073873    2.39183445299905
C         3.12248653878007   -3.68591806646034    1.74548277970723
C         2.61665972106026   -5.09479018980880    2.03531287209582
C         5.66308167414088   -0.64736978212566    3.22317854018621
O         5.34801652923953   -0.26115987960707    4.34698865677484
H         4.96000208125257    3.17447828812370    0.67126401458399
H         4.14190993425935    3.95156406403649    2.10413197564901
H         3.23450435398071    2.91139495474096    1.01741287111234
H         3.92464190757955    1.58740518268598    2.90383364601502
H         5.64213993412974    2.10963436477872    2.90452835039171
H         3.27775891061392   -0.06110391961966    1.14672349552612
H         4.56161983509575    0.10901192128472   -0.84831489915642
H         3.90526974677627   -1.45943865946721   -0.44373619279238
H         5.72271333648516   -1.17567658617804   -0.16088581640522
H         4.93282259023192   -4.57805203292368    2.54088359669410
H         3.21427276047268   -1.14923683154355    3.99136665769468
H         2.02068006486263   -1.81294984101812    1.48064985799505
H         0.89706093656638   -1.65946230210635    3.62432383004350
H         1.39950283990430   -3.39199190579732    3.92756325291317
H        -0.14878986899602   -3.97270657462695    2.40477944326465
H         3.39257840156137   -3.51487001582704    0.69592271907669
H         2.66169474859513   -5.29565959691374    3.10989637985232
H         3.32917220627592   -5.70324663936966    1.46582146786920
H         1.62425214613828   -5.38753498211161    1.67953300725332
H         6.66781520273481   -0.64917949917730    2.77170615554320
