37
 energy: -56.178932631626 gnorm: 0.119114604036 xtb: 6.4.1 (79825abcba525fcdf90b791dcacef51065a7a4e7)
C         3.69907112525725    2.86566523676089    1.14045556610310
C         3.09362584611910    1.47482276894075    1.18498090533334
O         4.00281950652372    0.60780434500253    1.86627727157848
C         4.52807639099285   -0.55722473547925    1.20492483967318
C         5.79169533825050   -0.06471839505783    0.48681564533845
C         4.97696230328756   -1.65207971967107    2.19807699175297
O         5.13647893052107   -2.87461006228306    1.45111220151005
C         4.43807546604925   -3.82050289115564    2.28518067402175
O         4.53282272413176   -3.33188964122394    3.63691808271796
C         3.95111107944770   -2.06224838060235    3.26831872977926
C         2.60118403251003   -2.32316214798741    2.55524427836835
C         1.33787500575750   -2.12268268177794    3.39656713950589
O         0.18275813140074   -2.07147261735246    2.56956865100220
C         2.93631653169768   -3.73679513928951    1.99510239731676
C         2.18191056600987   -4.89385384289363    2.64075688445804
C         6.24953904799594   -1.24078358754731    2.95693678177743
O         6.27015878234891   -0.23620222632866    3.66529009758060
H         2.99626009154660    3.52551896988799    0.62218192160356
H         4.63943044909395    2.85028821775096    0.57923720471950
H         3.72680508879325    3.21229641130404    2.17788323882036
H         2.84675519203713    1.19362561183352    0.15799143534169
H         2.13783184639183    1.43848066431411    1.71789848096642
H         3.83764744278049   -0.97582903015781    0.46334979393547
H         5.55998548105598    0.66100180377078   -0.29905030935865
H         6.43248666018524   -0.90986885921558    0.21561974846954
H         6.33740252284906    0.60942928778897    1.15287141217416
H         4.94491486472699   -4.78883258483324    2.26027604647490
H         3.82079671207747   -1.43240503393480    4.15004120702495
H         2.46077314667091   -1.59667121682979    1.74832468822006
H         1.43168545452892   -1.20488557048984    3.98822164143660
H         1.18566618666125   -2.90827712997425    4.14233151470097
H        -0.55867655819388   -1.68518313105380    3.06551308866936
H         2.83164845217601   -3.86815274517838    0.91086388691618
H         1.11739288249387   -4.86341079417682    2.38979530799813
H         2.17683217066270   -4.98597662220478    3.73332329028341
H         2.63337823106213   -5.78696252051197    2.19839338584466
H         7.09375503787620   -1.93767656770058    2.83462741499501
