37
 energy: -56.185556484985 gnorm: 0.119250821739 xtb: 6.4.1 (79825abcba525fcdf90b791dcacef51065a7a4e7)
C         2.92316943507602    2.18517855497453    1.99180741128013
C         4.10560330757637    1.38119337136202    1.48343035654164
O         3.57728512165233    0.30833291095906    0.70089017415938
C         4.53559205189335   -0.75284340989611    0.53925092802469
C         5.81423627089163   -0.37273894953052   -0.21940954503546
C         4.90425314884639   -1.42729602701944    1.87931058546789
O         5.15464868371969   -2.81435080339294    1.57704653868979
C         4.36902622542096   -3.55214016021418    2.53444670831068
O         4.37918864069281   -2.74260435809909    3.72585868011491
C         3.86877916040031   -1.60072677733496    3.00347331757985
C         2.48093452646100   -2.14813385783393    2.58743608766044
C         1.57172221512155   -1.95529455533432    3.80403457329431
O         0.20852172271207   -2.24377442269414    3.52241824424428
C         2.88928025263393   -3.58241728263257    2.13964618538142
C         2.13181405655267   -4.73400525852480    2.79146903391534
C         6.24454239674832   -0.96132108985403    2.47174319051987
O         6.29524628704737   -0.29131050518091    3.50125193469226
H         2.40766287320596    1.55718503766380    2.72517975671446
H         2.29224874309185    2.24983031761684    1.09892590080726
H         3.20811139301820    3.15680518668964    2.40644977531746
H         4.76409177080834    1.05369426804961    2.29204745921146
H         4.71937648497773    1.97899401267853    0.80168190957455
H         3.99890596075410   -1.51665090268458   -0.03557201017895
H         5.61522978727277    0.15440176543388   -1.15773979075479
H         6.34242541455800   -1.30412107401895   -0.44740868958506
H         6.52196873989669    0.25863853043160    0.32499741553220
H         4.90845332734267   -4.49587890718573    2.65082710718251
H         3.76785403759911   -0.74463809932213    3.67283518694756
H         1.97966281296897   -1.52127301680240    1.84285857301092
H         1.51463980834750   -0.91525505798168    4.14501322304609
H         1.83286917761667   -2.48074759743458    4.72717705179647
H         0.18746812708700   -2.93653177357378    2.84083930395944
H         2.76865239849401   -3.60700654073996    1.04940416024274
H         1.06335664790883   -4.72559979664151    2.55602370041667
H         2.13193747532530   -4.71411533415083    3.88774369279536
H         2.49941869766169   -5.72161054772436    2.49709809712957
H         7.00827769619740   -1.51094470339717    1.89908068545233
