37
 energy: -56.177535264104 gnorm: 0.128610523984 xtb: 6.4.1 (79825abcba525fcdf90b791dcacef51065a7a4e7)
C         4.19582859263748    2.88339993012575    0.92453418237290
C         4.47062656362147    2.04615784254683    2.16005069559211
O         5.23134783811043    0.87121512743417    1.87137852368492
C         4.50877391712744   -0.29391666495877    1.43442359987574
C         4.78449036324828   -0.62571716932420   -0.03828317551807
C         4.74941749545396   -1.37951681339693    2.50686036269921
O         5.29466726234126   -2.56575238933938    1.89568895826747
C         4.33939121279990   -3.55007098186689    2.33921517390673
O         4.02396503302719   -3.21753220579178    3.70480599743878
C         3.53683598215874   -1.92598031290039    3.27955082725619
C         2.36473533898798   -2.37403682686073    2.37165222368032
C         1.21187194981274   -2.79954212554427    3.28478818008722
O         0.12392190932962   -3.32438870317271    2.53529181800162
C         3.02318723286802   -3.52537515330646    1.55599772097150
C         2.38717918098421   -4.91081897800035    1.52732399509301
C         5.85188686555958   -0.74290884757347    3.36928498552096
O         5.69211924641057   -0.03920088125195    4.36459542251962
H         5.12560980484231    3.02191464426143    0.36392875343047
H         3.76017276048338    3.85463571604181    1.18218357745929
H         3.47071992858514    2.39676522736473    0.26530537672211
H         3.49899730872468    1.87377453151880    2.63009850496108
H         5.14779579945927    2.55681859402986    2.85253282729629
H         3.46345661803168    0.00456161133525    1.57611989807766
H         4.33218993155195    0.08917572076507   -0.73275930507672
H         4.40767358664034   -1.60786043959770   -0.34134060855374
H         5.86341386747007   -0.50590903952330   -0.17046427987101
H         4.80342030552418   -4.53799035666744    2.40135344625272
H         3.22615836231620   -1.27996489363149    4.10251051900104
H         2.08482425511701   -1.48401181189913    1.79882689457214
H         0.90847602348830   -1.88540074046329    3.80776377220255
H         1.51238919094305   -3.48926514121129    4.07880471622770
H        -0.55091867640905   -3.71747420694800    3.11406623840036
H         3.22970597758447   -3.05116949123903    0.58839117325603
H         2.32464278100812   -5.29559859986647    2.54964500708298
H         2.96642102993450   -5.70994163850549    1.04973041365285
H         1.36250469353941   -4.92975715119941    1.14413319377503
H         6.83584441507563   -1.08791531147624    3.01415365374327
