37
 energy: -56.178213316762 gnorm: 0.126541498924 xtb: 6.4.1 (79825abcba525fcdf90b791dcacef51065a7a4e7)
C         2.73278730434759    1.72876210745693    2.02413835781484
C         4.16380564531679    1.51716163582272    2.48283325818107
O         4.99017461722070    1.04074324648533    1.41856889072751
C         4.81405128044698   -0.35332448676124    1.10851999152781
C         5.76599444765039   -0.71420150277869   -0.03976052279488
C         4.91264752727298   -1.34143400976987    2.29193689267059
O         5.29793950776725   -2.66641771327335    1.87486292532827
C         4.42143072003182   -3.54199577207740    2.61191535197041
O         4.09121906824996   -2.80525998875519    3.80485065290581
C         3.63123434968388   -1.63778467700299    3.08954770004760
C         2.51595746581604   -2.12406129725821    2.13113925755771
C         1.12315312188503   -2.12683736275148    2.76679188574609
O         0.13641260736987   -2.42579988082332    1.78811494814010
C         3.10271687198877   -3.53508967603646    1.83257049349178
C         2.18770038724212   -4.72605458559481    2.09549703116498
C         6.17222641825656   -0.94061111505347    3.07761258959838
O         6.30533537855551   -0.44470497105722    4.19463201866352
H         2.67556063288427    2.20411699219181    1.03990225282465
H         2.16497464594312    2.36452815316350    2.71179268942250
H         2.24704483158551    0.75680339459789    1.89557307980117
H         4.06485928559892    0.91661729510388    3.39073217707550
H         4.52605706838083    2.52092812762756    2.72796750664402
H         3.83678195678857   -0.49023878078231    0.63096957858332
H         5.40239594423557   -0.26016113868279   -0.96690023362170
H         5.65023480828316   -1.79877257952548   -0.13327699383247
H         6.77291634936246   -0.34101586487083    0.16698201275680
H         4.94731499023242   -4.43966996506034    2.94776591522713
H         3.42623971985535   -0.80278614364635    3.76176319571633
H         2.31843723175224   -1.50740080801826    1.24833739753487
H         0.89675023033610   -1.12696529985936    3.15435425503629
H         1.09704813767590   -2.81021765192396    3.62049006865653
H        -0.74430966022240   -2.23157142109597    2.15075725985461
H         3.38044076742084   -3.63929466944880    0.77625891453050
H         1.92014914960789   -4.84532752780530    3.14967761185204
H         2.63452682930390   -5.68120908549402    1.79509768151080
H         1.24747057296387   -4.61101734181810    1.54787858557591
H         7.12966939376739   -1.06565586216242    2.54753069458128
