37
 energy: -56.176265047673 gnorm: 0.123683121458 xtb: 6.4.1 (79825abcba525fcdf90b791dcacef51065a7a4e7)
C         4.77285349640010    3.17392864658154    1.73925938428402
C         4.02770979771749    1.85230041669716    1.70687145669559
O         4.92977742808727    0.89879192127002    1.14152696242552
C         4.31401730005207   -0.38211285773670    0.91636661566453
C         4.57277462385781   -1.10761495697817   -0.41091169293682
C         4.61819849236225   -1.26550153297435    2.14667383276872
O         5.22755319516998   -2.54446909628518    1.88038180861425
C         4.53505211245761   -3.52065916182770    2.68390291138219
O         4.20342771341657   -2.77425572712914    3.87041932664596
C         3.54476929747953   -1.70497539622670    3.15694078103730
C         2.43506244761256   -2.50831890557592    2.43441439649864
C         1.17709761528199   -2.63580797874552    3.29768555001004
O         0.18831484383387   -3.28395688247679    2.50834680398028
C         3.15586962694197   -3.84820175352018    2.10338248969550
C         2.45384365670224   -5.07570998794581    2.67361589636322
C         5.76791831508824   -0.43812073502931    2.74506327986807
O         5.70174028613004    0.11914685377370    3.83888535544510
H         4.94442883604053    3.42356904782357    0.68749921826314
H         5.70372163496543    3.13643893330333    2.31506941869492
H         4.20651192580622    4.06008133860359    2.04120169287738
H         3.13352804301629    2.01701865166667    1.10021566733328
H         3.78140137895962    1.56099119802989    2.73319264507836
H         3.23679233137185   -0.20620748413348    1.01883139110635
H         4.09096300581106   -0.53772940624549   -1.21155682841595
H         4.10307331585055   -2.09627385979735   -0.39156379924716
H         5.62959211690114   -1.14418227030448   -0.68966136454351
H         5.16806220022151   -4.39024810870362    2.87956122155362
H         3.39019265803224   -0.89759006509057    3.87482249791572
H         2.08869523533836   -1.98513296555026    1.53723556552796
H         0.72565385883457   -1.66544247108650    3.53389808495780
H         1.39021376781208   -3.06255208349201    4.28204407165406
H        -0.00102921992174   -4.13618848505854    2.93584648969804
H         3.22177010570294   -3.94294320181262    1.01229832905131
H         1.62985944874083   -5.44455252284176    2.05546410401546
H         2.03427127433676   -4.95850474720168    3.67981455234791
H         3.14701295957406   -5.92196121647186    2.69656885458523
H         6.75690264750000   -0.56865599156246    2.27795440377618
