37
 energy: -56.175929163565 gnorm: 0.127476440264 xtb: 6.4.1 (79825abcba525fcdf90b791dcacef51065a7a4e7)
C         2.75627814717773    2.68984500208898    1.16313128737331
C         3.83719019119892    1.71436309476843    0.73528377132238
O         3.86948640151507    0.56129615620853    1.57903282188494
C         4.65598316914262   -0.52621192392647    1.06006865740897
C         5.98600784782427   -0.24813671919760    0.34684717067222
C         4.95902409592699   -1.54535836304588    2.18081142600265
O         5.14818319402900   -2.83446292078160    1.56403683588583
C         4.23894201662293   -3.69077101186084    2.28387560133487
O         4.21720904948883   -3.23739071022711    3.65094837900157
C         3.90665540385753   -1.88496366960202    3.25002383674868
C         2.50552726326873   -2.19634415782496    2.66801308718124
C         1.62477086073030   -2.31077320112365    3.91506566352221
O         0.25338493759094   -2.56598135163206    3.64117983747727
C         2.79038203375471   -3.47926585836076    1.83290787270613
C         1.98770987967425   -4.66220786463287    2.36314234306482
C         6.30420019325396   -1.25928212177106    2.86866773538936
O         6.62527318523323   -0.49854447615090    3.77947168695227
H         2.82014273950050    3.58539685488003    0.53713921967333
H         2.83554487177125    2.99170130605839    2.21293018536388
H         1.81462123060460    2.16641283127360    0.97213510730870
H         4.76891747269638    2.27295485534122    0.85604748916071
H         3.70297444291114    1.40926302054718   -0.30767555789965
H         4.10419443969917   -1.01724329067808    0.24996201133754
H         5.88328681355009    0.34450476936434   -0.56757563638517
H         6.38512179928220   -1.23138286893106    0.07782088368060
H         6.62927573598251    0.30984250311384    1.03297206402525
H         4.48219990811554   -4.75605317239900    2.31805686840257
H         3.84598288397697   -1.14807924117628    4.05279362333704
H         2.24747001971407   -1.41884929993194    1.94169925684642
H         1.75654595002882   -1.37782905518089    4.47493847128244
H         1.92840903906742   -3.17522063953185    4.51258149963324
H        -0.13046921187078   -1.90111575955130    3.04492855490564
H         2.72529915057640   -3.31933196789121    0.74940947470457
H         0.90867133841447   -4.48529525691077    2.32461760206832
H         2.28707809815556   -4.93734688019581    3.38142076899644
H         2.22942968909218   -5.44005530857198    1.63261067096115
H         7.17301810750133   -1.85635274939086    2.54932108673900
