37
 energy: -56.170910484594 gnorm: 0.131355011792 xtb: 6.4.1 (79825abcba525fcdf90b791dcacef51065a7a4e7)
C         2.88547678403644    2.38454956126051    1.52667616911598
C         4.35155497844100    2.01780463358947    1.38846549802640
O         4.76582841103460    0.70370911612122    1.76800386565966
C         4.59718067070956   -0.51429251446716    1.02060522030399
C         5.46711198696755   -0.71251034153254   -0.22795617531061
C         4.94013933159628   -1.50355623250170    2.15651642351375
O         5.22482667061344   -2.86005734184307    1.76048549909762
C         4.32562651043806   -3.70214486344870    2.50913669183586
O         4.14124444726133   -3.02265288692720    3.76580208940245
C         3.79412208043161   -1.76355194745139    3.14902510969880
C         2.46621831772135   -2.22850662889230    2.50145799928584
C         1.44196295201402   -2.27525360783964    3.63841960231478
O         0.10187739556540   -2.55665977458882    3.25654882863535
C         2.94947896909012   -3.55850901257279    1.85185511979513
C         2.03118374617774   -4.72635762471254    2.19485148687774
C         6.25061867763506   -1.04703773721828    2.81887537381322
O         6.42356485674725   -0.39599761461921    3.84727696810755
H         2.17762465483111    1.63306814434689    1.16311197636363
H         2.74984546001796    3.31016112574851    0.95718030075172
H         2.70299988531207    2.59502684849358    2.58477825394790
H         4.89674374099467    2.82997996769090    1.87617935077760
H         4.53479037142562    2.13221321739445    0.31505991174727
H         3.56352694741110   -0.47000454303296    0.65803943662894
H         5.22663721178836    0.06923218620724   -0.95527667829848
H         5.26412179464399   -1.67575965632051   -0.70689858109199
H         6.53606867680161   -0.68184001784491    0.00071977313557
H         4.74395375693557   -4.70755647087713    2.60566996420085
H         3.71985491154208   -1.00403057953000    3.92923715326724
H         2.01367034544889   -1.56762839795842    1.75509086349112
H         1.51743741833268   -1.37592056392522    4.26028028771365
H         1.69038683162830   -3.01572328714498    4.40424003608357
H        -0.37483772786140   -1.78008028025160    2.91806272936828
H         3.05989072591031   -3.66594091821280    0.76555356679014
H         2.11238005057648   -5.05149781255771    3.23638757777682
H         2.21883112844387   -5.62672234969902    1.59790459397505
H         0.96328317343172   -4.49768661403471    2.12814630006961
H         7.06149385731575   -1.51560600815765    2.23900867528509
