37
 energy: -56.176501312441 gnorm: 0.121837534705 xtb: 6.4.1 (79825abcba525fcdf90b791dcacef51065a7a4e7)
C         2.44591763246005    2.18694361204688    1.31299047614663
C         3.89810084984931    1.79603217183957    1.10966451788907
O         4.21123947209161    0.58383260854409    1.79889255683338
C         4.81933058816847   -0.46930165966582    1.02966685712423
C         6.02542254551127    0.02452749254210    0.21945001194158
C         5.02337641239567   -1.58348360417515    2.08015317251718
O         5.05771361677764   -2.91026517869503    1.51761054162960
C         4.27385118880396   -3.76806234217972    2.37077794012209
O         4.32460769197407   -3.16882799319909    3.67969197490347
C         3.98769440964176   -1.85440796724743    3.18468453386348
C         2.59664766584641   -2.12845347244481    2.56119247245398
C         1.53898527292361   -1.96323733674591    3.65573338629043
O         0.21756887236821   -2.19430365418972    3.18529632580350
C         2.80485054496187   -3.56149584570234    1.98894069760048
C         1.85428657562954   -4.66229732709866    2.44659465711329
C         6.37140706791796   -1.50313455724081    2.81557276592001
O         6.57246847124879   -0.96880599938460    3.90435224151631
H         1.83895478241954    1.33723132919604    0.98505296487633
H         2.13339526931732    3.09039758319999    0.77859468351508
H         2.26152403139788    2.33004530192723    2.38196167975989
H         4.59683274800564    2.49958337693254    1.56957080481651
H         4.07194739516161    1.72932890392067    0.03068716051747
H         4.12206968188321   -0.83615364173033    0.26736624104978
H         5.87480553342743    0.94659418167539   -0.35068344725946
H         6.15170098021174   -0.78915976426301   -0.50194231568038
H         6.92265096769265    0.19882790065422    0.81986844370788
H         4.64855695190595   -4.79458062860094    2.33876835454507
H         4.08973033807730   -1.09494097301830    3.96180592967528
H         2.23193079037161   -1.50150267612196    1.74110842569341
H         1.82080373308377   -0.98065749495362    4.05110942137808
H         1.70151796904845   -2.70319284123776    4.44474520385018
H        -0.00910465340401   -1.29257882610195    2.90171688284682
H         2.71665427709460   -3.51982146641689    0.89611498484502
H         2.22228381926963   -5.21771202397117    3.31446499498878
H         1.71321833906928   -5.35878375423898    1.61159755950288
H         0.86762163996863   -4.26505307875220    2.70318953366047
H         7.07858167866842   -2.16678915183551    2.29328279553695
