37
 energy: -56.174197911936 gnorm: 0.139821496677 xtb: 6.4.1 (79825abcba525fcdf90b791dcacef51065a7a4e7)
C         2.60852284185810    2.23689641816322    1.68451530312351
C         3.22791985680876    1.17240754647720    0.79783607792499
O         4.14540695684314    0.48935663231267    1.65467776625271
C         4.81026514896840   -0.60550401788593    0.99907244428506
C         6.07437370060219   -0.09460207216617    0.29481048750424
C         5.08708939217722   -1.65659859842034    2.09685462149171
O         5.29116066673994   -3.00366017191449    1.62593803779531
C         4.30092816718131   -3.75815888535323    2.35279575641669
O         4.47501870236345   -3.10692254054010    3.62578345523736
C         4.00251408963844   -1.81841440518807    3.17552904072807
C         2.61713269256648   -2.04647598619932    2.52164792941185
C         1.48466928070065   -1.79979417452480    3.52196817486464
O         0.33689074954762   -1.82478462506002    2.68362224642366
C         2.82536460200231   -3.50791873399175    2.02641512371269
C         1.95493841761205   -4.56245391918143    2.70102369500165
C         6.41452264833431   -1.37170501118018    2.81882475172843
O         6.55179690097518   -0.64622538744263    3.80178375444850
H         1.70782033145203    2.58649729538288    1.17024680850829
H         3.31966901003929    3.04956113479065    1.86706761585084
H         2.39556194119584    1.84873587208498    2.68509391890270
H         3.73672701294121    1.55127655276823   -0.09227509027581
H         2.46963093496090    0.46422459497657    0.44806632191580
H         4.28743480920763   -1.07515724114938    0.15768696487357
H         5.76619726125056    0.76614138437087   -0.30693077501675
H         6.46652676070715   -0.90699586566212   -0.32540910112001
H         6.93233090151540    0.29960946455168    0.84654267368583
H         4.62439553379110   -4.80087492569575    2.29551632007145
H         4.05141985236717   -1.14212074227813    4.03072148582348
H         2.55475516507230   -1.24476409770889    1.77868722337601
H         1.66437284344205   -0.85705548565940    4.05126713433326
H         1.39835295265312   -2.52030126127631    4.34044828912832
H        -0.45236220245507   -1.93082972633205    3.24106288652411
H         2.63855696602661   -3.39563124198708    0.95111153629684
H         0.87675190280508   -4.39936424673025    2.61145815343062
H         2.15262013740636   -4.41895214249424    3.76992169336450
H         2.25696931659125   -5.58636372276923    2.46115357058417
H         7.23681485840847   -1.96227776178347    2.38479779513181
