37
 energy: -56.175341724739 gnorm: 0.133880706375 xtb: 6.4.1 (79825abcba525fcdf90b791dcacef51065a7a4e7)
C         2.68319820048757    1.73950882486471    0.92639669733028
C         3.60812642719881    1.55233147164572    2.11486700571567
O         4.87582924191029    0.91268369044966    1.95269704571468
C         4.77436065527293   -0.33970609434388    1.25141353707902
C         5.89504136421837   -0.45306332967840    0.20920384583665
C         5.00388079649253   -1.43309959054417    2.31835700470987
O         5.28964487043772   -2.68346320072002    1.66039641538922
C         4.34815895870024   -3.61437611927776    2.23062117210281
O         4.22104248809860   -3.21337991908218    3.60828492599977
C         3.88403258092877   -1.84568475801874    3.28878983220284
C         2.52884911329640   -2.07809449743948    2.57582582603348
C         1.42687037795711   -2.36015996031243    3.60054423607272
O         0.18823690638654   -2.46449813028785    2.91080179287603
C         2.97749344530935   -3.24889274361102    1.65258117633702
C         2.04748665030249   -4.43918244259704    1.44502224927958
C         6.25169832564138   -1.17771909095777    3.17987687143877
O         6.24284255722941   -0.47264618133927    4.18693549546578
H         3.23002260917503    1.59316941261933   -0.01036672559583
H         2.26692974558845    2.74306273541443    0.78827254798239
H         1.85284928224687    1.02698348341815    0.92901022416118
H         3.03947963887150    1.21912425772106    2.98684069692306
H         3.90509668903392    2.55066438402805    2.45251197367889
H         3.80290204267649   -0.42277538702480    0.75019213360042
H         5.78277595897257    0.33155882905197   -0.54558692816905
H         5.94187663681347   -1.44080180046267   -0.26049734633122
H         6.76932254776115   -0.17717099632935    0.80537290821408
H         4.75937278554847   -4.62395913274356    2.14807339209228
H         3.65734117084309   -1.18840454831474    4.13004646915693
H         2.12858102460036   -1.27570663264114    1.94766766427392
H         1.40169073407032   -1.55739374201223    4.34629176423856
H         1.69706211840145   -3.28928665284074    4.11065273578577
H        -0.18338920062866   -1.61003669400321    3.18774139660787
H         3.15025965702841   -2.80249296850888    0.66533123042767
H         1.97700884286570   -5.03952290086815    2.35701490299414
H         2.49965992067389   -5.02822591314521    0.63831234183813
H         1.09271543277817   -4.09157425448606    1.03915023238061
H         7.18077846109532   -1.61841461175254    2.78501283613430
