37
 energy: -56.173305690642 gnorm: 0.137686045030 xtb: 6.4.1 (79825abcba525fcdf90b791dcacef51065a7a4e7)
C         3.93907395173902    2.67471870663328    0.49622969778040
C         3.11239865158124    1.63541249184011    1.23069535623651
O         3.96565116924754    0.73107977895239    1.93543735703827
C         4.56195745390288   -0.35733288573588    1.20718514496173
C         5.74481741820028    0.13917430060552    0.36498621388112
C         4.84328261121082   -1.46986731981654    2.24143873220755
O         5.21593077093849   -2.69527325320622    1.58000389229525
C         4.36389560960357   -3.58198366035823    2.33228815305504
O         4.37469386500476   -3.07046337150593    3.67881864652489
C         3.77375616720528   -1.81541750852741    3.29155048556627
C         2.42165212444372   -2.20520139896988    2.64445127824134
C         1.39429029587614   -2.42198262993475    3.75867722998021
O         0.11185357231898   -2.75429947627556    3.24315270365944
C         2.88306059403489   -3.51793398396872    1.94569068847128
C         2.16247545548920   -4.78844194111323    2.38312585435026
C         6.06673681538882   -1.09515029106326    3.09421728183342
O         6.92413237804899   -1.86768315269203    3.51781985888811
H         3.33567160568114    3.55270478604863    0.24522387726368
H         4.21818948849731    2.27247634982489   -0.48345074180386
H         4.82457432592050    2.94698168241354    1.07841564662397
H         2.48967819524189    1.09661910335384    0.51191496330155
H         2.44942914827847    1.94724714122154    2.04438734523372
H         3.73794179835249   -0.66462092124714    0.55264140295985
H         6.26314086578812    0.98846232830450    0.82105112920923
H         5.34510322347882    0.48822101627791   -0.59252879234529
H         6.54491154484465   -0.56745123438717    0.12743318770454
H         4.80069280978031   -4.57499920631846    2.19702118587521
H         3.80680207298575   -1.16260974789901    4.16554648527355
H         1.98684635477420   -1.41693578875295    2.02139045764832
H         1.39218405814807   -1.54020894920138    4.40958255017380
H         1.69973765902388   -3.25470198223495    4.39881085876377
H        -0.35694433609871   -1.97485995156166    2.90021189118064
H         2.77921994183034   -3.27285667713076    0.88129526383488
H         2.81950988994263   -5.28613041312595    3.10265231734870
H         2.08551823105087   -5.42970109781693    1.49707956080206
H         1.16722258324273   -4.52020538714346    2.75010337513107
H         5.95004385655055   -0.07234587249388    3.48610239071171
