37
 energy: -56.172442493163 gnorm: 0.121450499879 xtb: 6.4.1 (79825abcba525fcdf90b791dcacef51065a7a4e7)
C         4.90195643771907    3.17474015127180    1.49457200550383
C         4.22184604052423    1.90695910017954    1.97744913303276
O         4.78334528715465    0.88830205774054    1.14704246902287
C         4.12038156895285   -0.37675843828450    0.97189781670735
C         4.55032561840700   -0.95132401465702   -0.38456768053717
C         4.56956971382960   -1.27532198691252    2.14551220594920
O         5.23991011348484   -2.52404331277791    1.88222306488730
C         4.54599230011821   -3.47245244099855    2.71717758057857
O         4.15895114264911   -2.74938882230922    3.90136173686764
C         3.47431834991001   -1.74888756447907    3.11617512687550
C         2.40846125627201   -2.54921551552343    2.32732912341038
C         1.11766058494328   -2.56688224834523    3.15042534732586
O         0.14695490640609   -3.40216365710924    2.53327105455213
C         3.20309623590718   -3.86800153785836    2.09540321833583
C         2.65233028254573   -5.16948823639173    2.66774241188929
C         5.67977605121614   -0.44227447758909    2.80729614961969
O         5.62574038602364    0.22400077962912    3.83905713050804
H         4.62536377031683    3.30726068794430    0.44390903699802
H         5.94824471362443    2.85151487142769    1.51143687772864
H         4.74783835564648    3.98060436899853    2.21845666477780
H         3.13512265693525    1.99777269851157    1.90322304110989
H         4.43034912800308    1.64287223004244    3.01939378119896
H         3.06029929745955   -0.10853715692144    0.89355148474143
H         4.47392028103165   -0.24118647442450   -1.21391167187022
H         3.79280789435671   -1.73891986165458   -0.45013998397820
H         5.49522339598984   -1.50147892239523   -0.40455444051733
H         5.17758789584832   -4.26571578102824    3.12582056020163
H         2.97627055319468   -0.98753296003420    3.71900723822690
H         2.10915111938234   -2.14662570546596    1.35421125056648
H         0.70727708733090   -1.55082292352542    3.17081715844267
H         1.32991452224351   -3.00120816864182    4.13164903737380
H        -0.24379263245193   -4.04000315724676    3.15406327764160
H         3.37983891493831   -4.15920207685351    1.05245180791057
H         1.60633316698735   -5.27473160070740    2.36455887448430
H         2.65765272277729   -5.29160664100841    3.75736276445369
H         3.30076510695577   -5.99099149491069    2.34865574663931
H         6.64321975190239   -0.69331247772603    2.33604652375451
