37
 energy: -56.174501162700 gnorm: 0.121706420198 xtb: 6.4.1 (79825abcba525fcdf90b791dcacef51065a7a4e7)
C         2.61244897161298    2.12723977090308    0.94802396354793
C         3.28763989786002    1.42594497352479    2.11219408716612
O         4.62537390883400    1.04537988819437    1.78332220143446
C         4.86783696286443   -0.29057926198848    1.30687769172342
C         6.18923942844470   -0.21781949347031    0.52997506888633
C         5.02325550419052   -1.48506665946754    2.27414295639823
O         5.18687180028868   -2.70501671686244    1.52385370264057
C         4.30003308079941   -3.68704932193485    2.09593752965149
O         4.29707466924836   -3.30201068181273    3.48397588135163
C         3.90907178058557   -1.93311712034812    3.23532547351636
C         2.60333552705038   -2.12058224390972    2.42368277718770
C         1.46078001096270   -2.11819181968550    3.44276426288418
O         0.16364956904376   -2.22485386963423    2.87099525871640
C         2.84888828549893   -3.45672389152040    1.66285407997651
C         1.98558998372148   -4.64989592602977    2.05761915505680
C         6.29941122395645   -1.37005588880971    3.12425080939255
O         6.50812176622384   -0.52622079184229    3.99359282736083
H         2.87096683241113    3.19041816713082    0.92012986722123
H         1.56740800023299    1.89263954600611    1.17678205187645
H         2.92949980478462    1.74033219231286   -0.02509463808950
H         2.70605277826072    0.55220753381189    2.41725742294102
H         3.39339298910404    2.07776926890406    2.98558141793934
H         4.12373945125085   -0.66908859332018    0.59631114349841
H         5.95326606943335    0.22463261650540   -0.44290584359573
H         6.58652350892567   -1.22499616074655    0.36810920111442
H         6.93710061309882    0.31772182263912    1.12141471856446
H         4.77167752999110   -4.62599030928946    1.79409295084999
H         3.78542233068943   -1.36831360043393    4.16097486541166
H         2.28739929032889   -1.33576805004177    1.72879106823272
H         1.57960473136900   -1.17669647848186    3.99110193809831
H         1.61292054357868   -2.95663382466916    4.12859145344033
H         0.02531241640491   -1.93382420035634    1.95389634646962
H         2.76620389311918   -3.30154633101456    0.57986442329381
H         2.12921096239195   -5.03024076302245    3.07340319144585
H         2.10332252535713   -5.47489712652706    1.34507033590123
H         0.96738920113070   -4.25025005992393    2.08411399610209
H         7.12704514341341   -1.94948966836312    2.68539019347434
