37
 energy: -56.179487637268 gnorm: 0.128123857998 xtb: 6.4.1 (79825abcba525fcdf90b791dcacef51065a7a4e7)
C         3.23152879602405    2.45427123925083    1.10402040105853
C         3.73591076418791    1.71589873909024    2.33015014387604
O         4.91999935857616    0.95947318406645    2.06885837220244
C         4.62520448695693   -0.24299092730432    1.33554353912812
C         5.61503456986727   -0.32850759191910    0.16597120167714
C         4.88217336726980   -1.44421791846094    2.27233481453514
O         5.02867293551249   -2.64534561027621    1.48887292508079
C         4.35404659332867   -3.63721183518722    2.28839249864985
O         4.27947164292073   -3.16700409560925    3.64789874258456
C         3.76776164010287   -1.87967416460047    3.23902544610260
C         2.51515792953569   -2.21874136367019    2.39352466916698
C         1.20300373370664   -2.20522608772123    3.18221635366334
O         0.11827135413569   -2.47960009629774    2.30533635495751
C         2.89415889338054   -3.61784974604459    1.82494314327934
C         2.20381480929494   -4.87677518380324    2.33808513652473
C         6.20249519379104   -1.22113676200912    3.02829070902037
O         6.27252546505023   -0.57683996720203    4.07296802614133
H         4.02689939894502    2.97156134489934    0.55835161923585
H         2.41327655014779    3.14515841030548    1.33340291788829
H         2.86095634076991    1.77165617607199    0.33337700041416
H         3.02231008400972    1.02033143260523    2.77924315187022
H         4.01032384418365    2.47875020077399    3.06609795012847
H         3.61081943024557   -0.19745015618757    0.92225886110992
H         5.33740518912603    0.47176172059665   -0.52716335967460
H         5.41898537913201   -1.24772827905600   -0.39531133129300
H         6.68714176338314   -0.20835142452087    0.34499736107788
H         4.88569456337747   -4.57681987253499    2.11618336924192
H         3.70917414479743   -1.28575120647766    4.15277706389509
H         2.44856264009075   -1.53142837510791    1.54394275381756
H         1.11792676792032   -1.27457306383490    3.75480158447151
H         1.22602079358412   -3.04003088789518    3.88865943496065
H         0.38881213664127   -2.87099172492806    1.45767714936350
H         2.74055186664703   -3.74261623202779    0.74576680091921
H         2.57074468005466   -4.93423479624699    3.36724365401004
H         2.63290651053579   -5.73864587306662    1.81342050250737
H         1.11685203948952   -4.89873454409837    2.21487252937082
H         7.11881586698164   -1.64946900177581    2.59216233992452
