37
 energy: -56.177725723489 gnorm: 0.120769019803 xtb: 6.4.1 (79825abcba525fcdf90b791dcacef51065a7a4e7)
C         3.11294588419125    2.61965127652473    0.84368598388008
C         3.59963672265687    1.55327563900761    1.80751391859219
O         3.36361067482179    0.33832802752292    1.09287219355008
C         4.39975770218108   -0.62298423841080    0.82295991100543
C         5.57377596550889   -0.15815381697472   -0.04915816381838
C         4.91766135224770   -1.45810387787404    2.01497844851216
O         5.12841682355228   -2.78559967276134    1.49409508948526
C         4.43827684511098   -3.69146100639344    2.37799153374744
O         4.60703932406538   -3.06611001916866    3.66460310989183
C         4.02626671699713   -1.82262903292528    3.21437974538297
C         2.61574446341100   -2.22029684595054    2.71323954058444
C         1.62388678767067   -2.20400783026643    3.87939515800485
O         0.31487229854243   -2.71706960624710    3.66941264994469
C         2.93360395480188   -3.61620199056585    2.10099354858342
C         2.23492243084040   -4.77690917548946    2.80055476759767
C         6.29019790237019   -1.04689608430887    2.57313241401461
O         6.50775460808595   -0.14202293347911    3.37640507761640
H         2.75722847105066    2.06838685497671   -0.03240221289357
H         3.85761251386564    3.39232398631734    0.62476441562018
H         2.21089816862899    3.18238231224114    1.10218592317928
H         3.03144263476008    1.57579508159275    2.74098737055062
H         4.61433899469489    1.67154385122163    2.20153927942187
H         3.85875877054961   -1.35559105189772    0.21266271462413
H         5.23506495775047    0.34581056013650   -0.95978394945447
H         5.98510936846412   -1.07901090826614   -0.47491289676687
H         6.23849147025487    0.53494445070956    0.47397642394314
H         5.00449158636395   -4.62659564398085    2.36835319216955
H         4.06485152118125   -1.14611253953675    4.06992381943886
H         2.24209172915543   -1.49342613813007    1.98477119215720
H         1.64074419507386   -1.17488289874313    4.25599136383277
H         2.02022827711771   -2.91246970643281    4.61252943739830
H        -0.21296712766232   -2.09491577288969    3.14100371717021
H         2.82571490400787   -3.66668354451259    1.01030800608674
H         1.28388362192963   -4.33308193558012    3.10982642919084
H         2.77855973448050   -5.20634773394843    3.65041049713126
H         2.02109282748430   -5.59172477451857    2.10233985012045
H         7.06483025186786   -1.74787706614119    2.22400429353205
