37
 energy: -56.174343317597 gnorm: 0.130370775258 xtb: 6.4.1 (79825abcba525fcdf90b791dcacef51065a7a4e7)
C         3.53184802764855    2.73591260632066    1.33771714198227
C         3.11998030011816    1.27724769434143    1.26254456710344
O         4.18257760441360    0.54348968645012    1.87492105346812
C         4.68839246138149   -0.58801822813197    1.14388359202889
C         5.87366387224036   -0.26394044070873    0.22460050060241
C         4.97585963716469   -1.64972127220819    2.22864461122979
O         5.07580664751171   -2.93665940097389    1.58694122423607
C         4.31667671379901   -3.74929204439349    2.50427474625381
O         4.39994245144472   -3.12001584672259    3.79733014000348
C         3.89395595836016   -1.86135123909142    3.30136247404036
C         2.58833124136423   -2.15907857830271    2.52318722340206
C         1.33420177438951   -2.10100296711845    3.39940202212207
O         0.14350304245060   -1.96549977173762    2.63473256733768
C         2.85839598132468   -3.61895526989369    2.05387279363463
C         2.01792209512483   -4.81602868971666    2.48445587346993
C         6.34198199283478   -1.27296820873423    2.82551235014272
O         6.43676344258002   -0.51196080043417    3.78637524579332
H         3.61604849541365    3.01170567849213    2.39356103764483
H         2.83715296200532    3.47733918053283    0.92886073579398
H         4.52988692648925    2.78681343475800    0.89217703930235
H         2.95505933274220    0.85209264380478    0.26918229957153
H         2.24299780122417    1.02770441384121    1.86875732839921
H         3.92661128935555   -1.00734241466849    0.47626699890066
H         6.68402080157705    0.06628338988624    0.88203371415458
H         5.59457827295280    0.49139233784218   -0.51703529742426
H         6.12748257361269   -1.16384405048007   -0.34254257600566
H         4.76503927644059   -4.74206757969935    2.59666824997063
H         3.99572473053786   -1.03345757177439    4.00517650817430
H         2.56351059367052   -1.49405980192495    1.65384409732108
H         1.35731660900341   -1.25108693998367    4.09100554909829
H         1.19813028759804   -3.01736116610833    3.98100572326688
H         0.12645767822136   -1.09806599724479    2.19635607046437
H         2.83060352824244   -3.57282831612848    0.95802460124867
H         1.91538747392131   -4.62025035414283    3.55602662988826
H         2.44477132075724   -5.76403526062008    2.13617864444704
H         1.01242697966830   -4.68594398705614    2.07310545330924
H         7.20871440901659   -1.57866605314824    2.21835191904249
