37
 energy: -56.177174893374 gnorm: 0.116641636620 xtb: 6.4.1 (79825abcba525fcdf90b791dcacef51065a7a4e7)
C         3.66781405115188    2.99213148067963    1.55587726685424
C         3.78904686210945    1.75415948397722    0.68655729832533
O         4.09042205602945    0.67950761037604    1.57920232711483
C         4.56153084493336   -0.54106094879667    0.98016685357097
C         5.89658628689548   -0.17546993909294    0.31763660947461
C         4.82502347133495   -1.53932942658007    2.12933561472808
O         5.12495012929815   -2.82595210023674    1.55259609267929
C         4.36473911825050   -3.77586618397375    2.32583169991924
O         4.33507646318247   -3.19120301564305    3.64196356061090
C         3.76514821691955   -1.95285322783993    3.16455970557626
C         2.44886449085386   -2.35946905431837    2.45680627467568
C         1.42052113765243   -2.29285516606515    3.58907763113858
O         0.15842309728755   -2.81648211289614    3.19694586054290
C         2.90188291595446   -3.73031211108795    1.87371573545556
C         2.10823705388561   -4.88684823668195    2.47148940269672
C         6.02350855622324   -1.08718077888008    2.98002906389264
O         5.90868713905213   -0.28702092052924    3.90627608174586
H         3.32419103200406    3.75653561529574    0.85191177786564
H         4.68496053425087    3.24173869300887    1.87616999637463
H         2.95056837168144    2.87763981749383    2.37418577514985
H         4.58813836268767    1.89488706170617   -0.04581750926882
H         2.82785282252145    1.58650020660662    0.18970677012925
H         3.85145305266392   -0.80330501542155    0.18715185100214
H         5.79465630953285    0.19430702587800   -0.70745842772313
H         6.60773448751211   -1.00658243606511    0.27336143383874
H         6.29108236052650    0.59220068904218    0.98916946027183
H         4.75872077337065   -4.79022895864708    2.22087729827592
H         3.54354106717468   -1.23457586992296    3.95581624021680
H         2.19628034848232   -1.61965623158034    1.69031964778580
H         1.41030521982634   -1.28380397813845    4.01676715186485
H         1.68798393717182   -2.96135800535385    4.41252057118517
H        -0.30683343771204   -2.73192439999531    4.04623509475012
H         2.87568720410601   -3.64284618464706    0.78035080478148
H         1.05087028161273   -4.62689528662111    2.36422168484213
H         2.25644331099150   -4.93320560524789    3.55689239234376
H         2.34788602094642   -5.84807857289581    2.00699372054950
H         6.97874339669777   -1.59307145188691    2.76808316350001
