37
 energy: -56.182855146873 gnorm: 0.112313520019 xtb: 6.4.1 (79825abcba525fcdf90b791dcacef51065a7a4e7)
C         3.53109486844112    2.01538994007768    2.51824119926522
C         3.84480355249169    1.57727823924977    1.09956778377944
O         3.47405505878950    0.21050525564868    0.90722444282583
C         4.48739628114561   -0.79217743852344    0.71141442658587
C         5.72678283537154   -0.42688271351060   -0.11650879446544
C         4.90476411361262   -1.45756563356336    2.04168501358545
O         5.28462835380174   -2.83954276341205    1.88733225516809
C         4.39322053953481   -3.52894481741847    2.78636939659375
O         4.24418207009280   -2.65240793344705    3.91967632856126
C         3.76279620507697   -1.59368882460837    3.06315758841047
C         2.49190784212121   -2.22847623826496    2.44611470268608
C         1.33958911732312   -2.10336976366952    3.44635258441937
O         0.05484761807090   -2.67038320479904    3.22549289422978
C         3.01850718229275   -3.65772216756269    2.12303548184487
C         2.22565626669255   -4.81693943782266    2.71665630358803
C         6.16394150651966   -0.80465857504755    2.63554437441458
O         6.40625712835357    0.39560468058892    2.74520094601986
H         4.37079403378265    1.69880208887900    3.14484738556690
H         2.70106212507239    1.37394174253792    2.83299191797620
H         3.19005210531829    3.05412048825844    2.56191271263650
H         4.90987151975588    1.67841246849169    0.87567846486691
H         3.29080078809484    2.11579103557628    0.32371408234535
H         3.90068136012316   -1.50256388057256    0.11729999810116
H         5.36420066646600    0.26702053791502   -0.88134669263538
H         6.14146146703952   -1.30117153015796   -0.62846653984398
H         6.53229999527851    0.03749878282316    0.45915919528787
H         4.92312944752979   -4.45271944855038    3.03336291571047
H         3.68404379458178   -0.61037185949057    3.53006745544774
H         2.13580983968492   -1.66420374610012    1.57812029752916
H         1.25888831403972   -1.01936412416096    3.58644595173085
H         1.67480796082287   -2.51744065110487    4.40168723769544
H        -0.19442966907517   -2.56110363836204    2.29231302841444
H         3.08170763938169   -3.66130970401435    1.02769251383332
H         1.16623829569080   -4.75180785611441    2.45114202499300
H         2.23725758312124   -4.61544317941963    3.79437538706241
H         2.66720772445834   -5.79670345937830    2.51111701123297
H         6.94572480421626   -1.57367363339624    2.73923031343537
