37
 energy: -56.172122604369 gnorm: 0.143732065920 xtb: 6.4.1 (79825abcba525fcdf90b791dcacef51065a7a4e7)
C         2.77141208260559    2.32778689160153    1.65739735055892
C         3.43339916142162    1.28486186063522    0.77588174761200
O         4.23705179319204    0.60040675205624    1.73930401607499
C         4.69365853831005   -0.64010110712481    1.17077509271378
C         5.83512491839334   -0.56234320695112    0.14804132346874
C         5.06800108624602   -1.61021853189154    2.31327106955888
O         5.45478462467235   -2.91275496430542    1.83183598510672
C         4.41567111899026   -3.74842002802220    2.37961137808888
O         4.27488615079282   -3.30353950706756    3.74239341836456
C         3.98549562089867   -1.94271346798609    3.35425881567801
C         2.63572499911852   -2.12170277996621    2.61606079920895
C         1.47603444035767   -2.15901379721416    3.61490592694430
O         0.31900992371005   -1.79874275464106    2.87170809507141
C         2.99492451110159   -3.45145379602854    1.88999681329666
C         2.02905092558160   -4.61796941379835    2.06638403789843
C         6.27851716732665   -1.04351052787979    3.07351914969529
O         6.30589000528053    0.07791449930213    3.57653997441464
H         2.23217046837174    3.14782341336208    1.17292190788245
H         3.48022627975396    2.84782675661237    2.31055823001916
H         2.11665867633834    1.93852797403983    2.44286154034979
H         4.09794569065099    1.63783105173254   -0.01690763251099
H         2.73552738670160    0.59817165788497    0.28568217855769
H         3.85345840621948   -1.15863753299810    0.69428902943953
H         5.41573048585230   -0.39550426482393   -0.84906330647033
H         6.50662162340264   -1.42521884417427    0.20261098393341
H         6.35781314053105    0.35644739968606    0.42826009490455
H         4.66425867698815   -4.81183030359435    2.32929612993150
H         3.93713427411154   -1.38464084946459    4.29092051645524
H         2.36307787418385   -1.28707672912694    1.96208341609075
H         1.54134371451053   -1.50496783059575    4.49192677304887
H         1.35041399858999   -3.15353242433724    4.05267627348488
H         0.28505750127105   -0.88057296671980    2.55434816449443
H         3.00400191410809   -3.23260818942553    0.81491189430515
H         1.02879837957496   -4.21559863481467    1.88010738525615
H         2.05394464866344   -5.07830454558388    3.06121348017546
H         2.16910798724011   -5.50024623759573    1.43462201806260
H         7.09894849734147   -1.77580282641838    3.13645149367054
