37
 energy: -56.187138141090 gnorm: 0.124243768149 xtb: 6.4.1 (79825abcba525fcdf90b791dcacef51065a7a4e7)
C         2.81324302177951    2.56918362229431    1.55618791631364
C         3.58648739513617    1.52549068479351    0.77146665568438
O         4.11374232811027    0.58280143812067    1.70733952405864
C         4.73691456912570   -0.55261751632903    1.08039873722999
C         6.01637185111831   -0.28817554748529    0.27539212671142
C         5.01193028065176   -1.54905095355384    2.22845968779744
O         5.18410792763300   -2.85350824673224    1.63962319006882
C         4.30111698761561   -3.71462909397244    2.38591317757407
O         4.36587414609047   -3.12556503192905    3.69881988123627
C         3.92299521506721   -1.81557613146245    3.28165062859167
C         2.56502284125186   -2.09162104394068    2.58986711734274
C         1.42724053703844   -2.19982598061581    3.60854714692388
O         0.17656022751963   -2.17766134958826    2.93315728807740
C         2.86252530470504   -3.46633738045680    1.92197623590417
C         2.04408325032058   -4.70802420639859    2.25835302779647
C         6.36241681515764   -1.29143804051508    2.91715842582962
O         6.51229159723236   -0.56392718797033    3.89676998398822
H         2.44158185536197    3.18695179782720    0.73266601073348
H         3.48580929317555    3.20307563166729    2.14382189375808
H         2.06836513902923    2.14794358199404    2.23801801860024
H         4.41661921378707    1.90355807484204    0.16924530970030
H         2.83791482452760    1.09145951608931    0.10055674118438
H         4.03504705524627   -1.06959550263097    0.41558974374591
H         5.76263307655396    0.12796522605502   -0.70460177710091
H         6.48894761122737   -1.25185691247822    0.05991494377583
H         6.73687406658206    0.32061581770756    0.82870156723179
H         4.81143712879138   -4.68111914324356    2.36063174244347
H         3.72803657645430   -1.15053278898621    4.12475647574271
H         2.23428174083433   -1.32644490895419    1.88012116655156
H         1.57579644556136   -1.34075992716218    4.27273360485583
H         1.43612371574226   -3.11964216349717    4.20045081058593
H        -0.51994219710321   -1.94477116207307    3.56998723818654
H         2.92875193584289   -3.38059583162834    0.83016773832690
H         1.01559875937535   -4.63792230633773    1.89173092892961
H         1.94077968790062   -4.85071265908727    3.34056471152234
H         2.50131458144133   -5.63344259091483    1.89545917562717
H         7.22232867328273   -1.77604282265482    2.42825164302280
