37
 energy: -56.175230338656 gnorm: 0.126258503014 xtb: 6.4.1 (79825abcba525fcdf90b791dcacef51065a7a4e7)
C         3.85636935198083    2.68585275231166    0.50012853125518
C         3.11648436543972    1.64501934871308    1.32002199312559
O         3.97296325667855    0.69697738831408    1.96047428985726
C         4.47120595465577   -0.42665493277078    1.21229035049185
C         5.78150481992608   -0.09572359866282    0.48525701799472
C         4.86188139184865   -1.46177719705324    2.29046091313108
O         5.19598592886950   -2.75874795355166    1.75733487656628
C         4.33574948158429   -3.73162725844483    2.38315430196495
O         4.30532264476967   -3.19020926929924    3.71764099462884
C         3.81485827708638   -1.88693650876750    3.33401663556865
C         2.48240155765887   -2.28964898010590    2.65487311420680
C         1.41641721557186   -2.40969928222049    3.74722431699042
O         0.04687823584652   -2.59733998584074    3.41556501631809
C         2.91750062865118   -3.54092065763082    1.83668064700123
C         2.06751395476848   -4.77166327073562    2.13261675572202
C         6.03862366822468   -0.81846136784583    3.04272853830051
O         7.14627618883488   -1.34179531284953    3.14568852971091
H         3.19098449436783    3.53787493701694    0.32901729603804
H         4.33416707779513    2.35122492629296   -0.42680820249746
H         4.73469261138697    3.01601419231450    1.06290752324000
H         2.38426338500750    1.17317402094405    0.65976541109007
H         2.61140081681520    2.07939881322754    2.18896914391202
H         3.62532106765266   -0.86310759043228    0.66837578030658
H         6.52575663561850    0.20590727291404    1.22893208825898
H         5.70146532652754    0.62244384260924   -0.33709888849724
H         6.13960068159257   -1.03356717740467    0.05153073708106
H         4.91442015266818   -4.64624171093635    2.22891598231932
H         3.75942290372078   -1.25749186406259    4.22387355761528
H         2.19258892787202   -1.47279021353572    1.98601296957516
H         1.56983611919705   -1.49031854384833    4.32377325963374
H         1.77849090526882   -3.15925920251949    4.45683916110372
H        -0.31679825073498   -2.01734147590156    2.72545851175521
H         3.01510990110896   -3.34588898207282    0.76140466469359
H         1.91525119823164   -4.87264962382792    3.21137724588915
H         2.46633954776445   -5.66903097050259    1.64488414011754
H         1.03659853407249   -4.77777497580399    1.76610937094698
H         5.78086079032276    0.20798634696302    3.34815188521880
