37
 energy: -56.181626784719 gnorm: 0.124575845078 xtb: 6.4.1 (79825abcba525fcdf90b791dcacef51065a7a4e7)
C         3.17645443353291    2.87670109049324    1.68012999350510
C         3.51973387862054    1.61355401978012    0.91227065248110
O         4.35557352522983    0.74100692417768    1.67552189568048
C         4.72128528550480   -0.51820866529588    1.08289585884560
C         5.93113793923204   -0.33795742505578    0.15621241742722
C         4.96772899395732   -1.55107006253920    2.20495648898968
O         5.06316051763008   -2.83667282715519    1.55989775568359
C         4.33989380597163   -3.71187993140462    2.44818185944689
O         4.27705538342122   -3.10833617099154    3.75458923602706
C         3.85838486261331   -1.82775306502695    3.23395043940232
C         2.51004247555346   -2.23647192037924    2.59069630212942
C         1.25515825188885   -2.18498400497445    3.46624209753376
O         0.12992422474181   -2.18847011856860    2.59751878399076
C         2.86954301891775   -3.64165112441526    2.02442630498739
C         2.19221352620492   -4.86817870619554    2.62578955926473
C         6.31419746443328   -1.24587219838054    2.88198027656450
O         6.36786668951015   -0.62661190410118    3.94264498348637
H         2.61517549496716    3.64463079914832    1.13864335007912
H         4.07213371271396    3.40701318394331    2.02072634304644
H         2.53044300056029    2.68122742708722    2.54131394380824
H         4.11786875060391    1.88345093100117    0.03813412314826
H         2.64197931520592    1.06461757145737    0.55578816206752
H         3.89979593987930   -0.87426739342791    0.45025639364680
H         5.63104834428450   -0.02731460689520   -0.84946737206594
H         6.44128292008359   -1.27553826050976   -0.08696306766668
H         6.76716200148382    0.30143389552375    0.45310332946543
H         4.77740941505952   -4.70617260974807    2.57118988132716
H         3.79684521367676   -1.08588993171605    4.03205504651371
H         2.30398741513904   -1.54605789578304    1.76638246916746
H         1.19236239475705   -1.20429912566959    3.95154698690180
H         1.11611981999010   -2.99561160255528    4.18738138291297
H        -0.16993874139183   -3.11217217261702    2.63950175217054
H         2.79270354260573   -3.63381390866016    0.92997774746787
H         1.14571819842508   -4.82041355070144    2.31008018755401
H         2.24975951517172   -4.94284744531693    3.71818453569863
H         2.63546848042753   -5.77644213548028    2.20658291271030
H         7.21064217508188   -1.48490119437447    2.28820247640933
