37
 energy: -56.178412892120 gnorm: 0.118726278421 xtb: 6.4.1 (79825abcba525fcdf90b791dcacef51065a7a4e7)
C         3.28746687427764    2.81377001072057    1.95039457368526
C         3.79176810689510    1.80752370644313    0.93248597879142
O         4.31010330304853    0.71180707228636    1.68962036880630
C         4.51225554918252   -0.52417528326251    0.98106078748290
C         5.71451470436036   -0.36140595433563    0.04135061547093
C         4.90720820218749   -1.61326129547278    2.00304964673164
O         5.08403009806194   -2.93015577848179    1.44402790865182
C         4.39622894188546   -3.78264319289217    2.38122886409653
O         4.50100437918747   -3.02322473491007    3.60074503257402
C         3.84396360418177   -1.84236715658463    3.09072968244712
C         2.50730619860079   -2.36552000277281    2.50891161738312
C         1.25081037527297   -2.16111632777908    3.35944277509749
O         0.09210695010001   -2.24166311701589    2.53983155581060
C         2.87674907337679   -3.84578559373966    2.19785424088228
C         2.33906334247348   -4.95613838622199    3.09384176807198
C         6.15420216686385   -1.23949159097451    2.82145449826773
O         6.29253815290176   -0.27200533786676    3.56724722741163
H         3.18856413947165    3.72587232422512    1.35353153356282
H         3.91397203822414    2.84340058827691    2.84822054156106
H         2.27607883218177    2.58143894096619    2.29723030227850
H         4.51141895305527    2.29349529335075    0.26866475956183
H         2.90946140700706    1.45667256730533    0.38723151743787
H         3.56394239771914   -0.61970011844423    0.43936678242809
H         5.64372849533642    0.41408162850869   -0.72777413207366
H         5.82441534498497   -1.25555788250759   -0.58062544135967
H         6.57910075555868   -0.12259500888895    0.66693993991680
H         5.02597194558138   -4.67623546270574    2.39047092723553
H         3.75888436823029   -1.02906198627019    3.81351265392524
H         2.30437319142349   -1.90304632540348    1.53754155315537
H         1.29911697860103   -1.15704228287164    3.79614493274601
H         1.23614769835706   -2.89216792021693    4.17297780176456
H        -0.68367785133553   -2.12779389364059    3.11437275834158
H         2.61608431466566   -4.04420398285696    1.15073084673061
H         1.24722265026604   -5.02603196401626    3.10409742883034
H         2.80076712168544   -4.81311744014345    4.07801064606015
H         2.67391327636324   -5.92554445628411    2.71268691924076
H         6.95659314495685   -1.96987050888924    2.63162457796299
