37
 energy: -56.173411120666 gnorm: 0.131995303407 xtb: 6.4.1 (79825abcba525fcdf90b791dcacef51065a7a4e7)
C         2.86592808134729    2.41408410953497    2.06780788913523
C         4.00115467464323    1.44800936324367    1.78329176584318
O         3.56549994684067    0.32441178020444    1.01501302763829
C         4.51117090723013   -0.71241537956644    0.69678287043593
C         5.78261507480397   -0.36050687861377   -0.08715988990299
C         4.93833492258950   -1.55906709001040    1.91631923469095
O         5.06521205127261   -2.92330382381082    1.46827601983403
C         4.44841450281663   -3.69622361415225    2.51723104338780
O         4.51680139219835   -2.96525934185066    3.75655684366326
C         3.98977206059270   -1.78871307153118    3.10523372205622
C         2.61378161387496   -2.19445775869359    2.52138806279829
C         1.41590424936837   -1.89096437502143    3.42523953406393
O         0.31342504900558   -2.43933706477539    2.71483754763184
C         2.94016825723871   -3.69247281259909    2.24962781084796
C         2.01653371763514   -4.60130845521835    3.05318237686568
C         6.25103956409964   -1.17494825352779    2.61898807413175
O         6.52463272208727   -0.03219535484597    2.98042396143725
H         2.85245224523261    2.77783200765445    3.10002091738572
H         1.99128707340329    1.79214793122919    1.84945803805075
H         2.94656793916740    3.19444851089893    1.30511061362150
H         4.42345787085851    1.04948009084263    2.70933645322029
H         4.83157202223330    1.90308674154326    1.23358669316526
H         3.89174278941038   -1.25600998537093   -0.02617560100501
H         5.53062829930131    0.13592432944196   -1.02949914813977
H         6.45355480349127   -1.20986249014197   -0.25109571224241
H         6.36940456361469    0.39223264665409    0.44665937640494
H         4.99147749928553   -4.64477610682598    2.53958198182472
H         3.97285457392382   -0.97833578252907    3.83606985740541
H         2.37519969017276   -1.75909758854432    1.54559929977930
H         1.49553327095711   -0.79786911980719    3.42823653946029
H         1.44453049959126   -2.30778843767251    4.43614452930259
H        -0.47324549239326   -1.88381581395431    2.84694149251764
H         2.76919399660372   -3.74974123097360    1.16737482956631
H         0.97078419820312   -4.42698639920209    2.78276389650404
H         2.19464113025844   -4.53417337444877    4.13298994384920
H         2.20282100350405   -5.64140342958173    2.76919096951450
H         7.00806412317983   -1.96615722677652    2.73824504019626
