37
 energy: -56.177067106115 gnorm: 0.117805428328 xtb: 6.4.1 (79825abcba525fcdf90b791dcacef51065a7a4e7)
C         3.41923152996124    2.91092157875162    1.50012268054176
C         3.74706685574184    1.72250056680765    0.61515445188371
O         4.05952217578252    0.67920220750850    1.54058354879527
C         4.43316769169639   -0.58956663491887    0.97384793985642
C         5.52712592935212   -0.45145107924901   -0.09346438838438
C         4.87465005662227   -1.49936265054703    2.14171853532197
O         5.11995657427017   -2.82516531461376    1.63176323967168
C         4.40547404778549   -3.70782369142882    2.51978337939109
O         4.44581335845629   -3.00100291456015    3.77425183265997
C         3.85470237141028   -1.78927990415689    3.25602600823411
C         2.52370122961584   -2.27296340649668    2.62885741865058
C         1.53553665140417   -2.47037223512747    3.78147461980663
O         0.13759227654847   -2.52346384024317    3.52893398521239
C         2.95565784236299   -3.64360550402517    2.02953722721964
C         2.15001241368074   -4.87467287390073    2.42977652917858
C         6.16884021137937   -1.01078573565255    2.81317121875355
O         6.30573756901228   -0.33053522684743    3.82800699707658
H         4.16774768130914    2.96821344602223    2.29661441505274
H         2.44921369738465    2.82133448813890    2.00064013136457
H         3.39092653785184    3.85539796475465    0.94845094430065
H         4.52607300216446    1.80531794974483   -0.14708897483056
H         2.89909476085948    1.31633586450580    0.05405051718756
H         3.54223882469956   -1.07400394153531    0.55740887257990
H         5.13284677574591   -0.08782119436338   -1.04754080883446
H         5.94605758110559   -1.46092729040357   -0.15586705501650
H         6.26416903814193    0.21738822510646    0.35966159162390
H         4.87740654382488   -4.68152985980875    2.67581167470158
H         3.81756236782947   -1.07391943948204    4.07943297312781
H         2.18505020265724   -1.55944437650748    1.87068224810291
H         1.68611227903803   -1.65573973221735    4.49904542498489
H         1.84658028974715   -3.41113838620074    4.24483363501161
H        -0.12056269506721   -1.70334312366832    3.07543219610793
H         2.94894359209771   -3.61748529923496    0.93269811729302
H         1.18267424190051   -4.95022200945887    1.92415257854824
H         2.13663947364055   -4.93626898568600    3.52441840412172
H         2.68197741501799   -5.77678509001764    2.11298256699178
H         6.88901423877721   -1.44301726354254    2.10053853840962
