37
 energy: -56.179064698701 gnorm: 0.121162234405 xtb: 6.4.1 (79825abcba525fcdf90b791dcacef51065a7a4e7)
C         3.00414551860652    2.36657058495237    1.95446658555658
C         4.04923564851525    1.26869409048549    2.02824387611711
O         3.66320545045277    0.30095702991713    1.04998804813094
C         4.55956402806612   -0.78835856222853    0.76624974595126
C         5.67005818411682   -0.38304200560175   -0.21226818206044
C         4.96373366264303   -1.55906434010364    2.04265747421620
O         5.23977051410191   -2.93047253567771    1.69477011267056
C         4.38221519576183   -3.71891989076969    2.54394648152125
O         4.30699369528180   -2.91617020544080    3.73761672328685
C         3.83629365637218   -1.72142039338533    3.07636244847962
C         2.53508639477852   -2.22325971945201    2.40266283553296
C         1.40983701204929   -2.02021396442590    3.42077488765295
O         0.10465358044639   -2.08481367061267    2.86116157336752
C         2.92347709430207   -3.69552894158893    2.07707570856907
C         2.24854102290083   -4.80681985906925    2.87349063204257
C         6.24943938061564   -0.98552278105896    2.66111938467217
O         6.57416361007832    0.18993717337417    2.81675153664006
H         3.24551553395032    3.21143444751510    2.60707936402380
H         2.06059915926971    1.88682437762595    2.23561068604762
H         2.86886504315617    2.84573461757510    0.98015680796489
H         3.99797079324527    0.93996198113012    3.06941218543159
H         4.97463597842899    1.77627826426759    1.73694232047090
H         3.85545317084140   -1.38802848093073    0.17762496066321
H         5.20521059360069   -0.00802997229834   -1.12945259694463
H         6.14555297590693   -1.32787542035437   -0.49446414348262
H         6.43428195627614    0.26133789470945    0.23117095926361
H         4.77489387895752   -4.69219170947827    2.85007429127564
H         3.61911409966239   -0.87592807276273    3.73141571773418
H         2.20097036699343   -1.58291585393886    1.57989328478147
H         1.57302380922303   -1.10337328112068    3.99868511233611
H         1.44326784585927   -2.79863186693808    4.18852395027005
H        -0.11658176403608   -1.19265621189033    2.54490875637890
H         2.90487822318105   -3.75982107302578    0.98194832357455
H         1.15594753073189   -4.77855792983614    2.92395959336259
H         2.59793187297953   -4.75640686584474    3.91156496371514
H         2.47428576910777   -5.82493794827942    2.54239171266127
H         7.04324811637245   -1.74854577937619    2.69248250413794
