37
 energy: -56.172917886401 gnorm: 0.126062269734 xtb: 6.4.1 (79825abcba525fcdf90b791dcacef51065a7a4e7)
C         3.35836359509295    2.77998885897496    1.56641448726736
C         3.31177211704691    1.39536096859157    0.94704052475336
O         4.31428937038923    0.60662969554570    1.59154105933048
C         4.66465970863392   -0.64042653817234    0.96491041070470
C         5.87962819440489   -0.49632845818909    0.03859326771574
C         5.00564034990479   -1.60353624503603    2.12366365469679
O         5.25629196745218   -2.94867882500417    1.67006959160757
C         4.40106071114288   -3.72465064729726    2.53297055766785
O         4.38272658989883   -3.00189098780065    3.77884225963333
C         3.90907547270965   -1.77134472729345    3.18922088284995
C         2.58354143807921   -2.16183352000779    2.48969802693358
C         1.50574363474321   -2.12550192992649    3.57643525122689
O         0.20278714251955   -2.40920044638080    3.08382638379065
C         2.96689112860106   -3.59308497778308    2.01116565625938
C         1.93422330621543   -4.69249224477416    2.23406414740960
C         6.20710554356965   -0.97477887275158    2.84866697511701
O         6.07860060439767   -0.43228238660372    3.94436645397762
H         2.56096245610023    3.39795572560944    1.14188387046269
H         4.32962057067108    3.23799774645990    1.35108704582129
H         3.23620506951776    2.65991502298114    2.64708006425597
H         3.55068354787476    1.45303036507482   -0.11800403066154
H         2.37213413431378    0.94637898331286    1.28521163894564
H         3.77383987938723   -1.07347596866018    0.49505568653413
H         5.58113221870755   -0.07850185609508   -0.92798090997002
H         6.48658635258150   -1.39449009806319   -0.11420558814190
H         6.52464314186565    0.26542820852836    0.48534175207895
H         4.76667757469280   -4.73996188171609    2.70800257950098
H         3.66944094949009   -1.11492130914539    4.02755409937140
H         2.28065264211485   -1.51616263240869    1.65904106540054
H         1.68292549094016   -1.14951934210500    4.04255923934782
H         1.80298675809124   -2.78848621545622    4.39410818786019
H        -0.39469282861266   -2.35740617202872    3.84883676885130
H         2.99325079299912   -3.66499951688565    0.91667178200250
H         1.02770024453265   -4.45194903125207    1.67062711504762
H         1.58869291872057   -4.70867707298467    3.27452584731710
H         2.34055883535130   -5.61165736317973    1.80142278760814
H         7.21352408675935   -1.22403341323440    2.47676116227827
