37
 energy: -56.175852736335 gnorm: 0.135329141962 xtb: 6.4.1 (79825abcba525fcdf90b791dcacef51065a7a4e7)
C         2.87036563895387    1.89607575046995    0.74865659159890
C         3.38588673807054    1.39877112607246    2.08653378023746
O         4.71131127127164    0.89669580198548    1.90298820067502
C         4.88169413247004   -0.39557055225666    1.29340478022914
C         6.16614249819274   -0.26005113282891    0.46466896812196
C         5.02369989580811   -1.55954068574269    2.29917070591736
O         5.35187860431510   -2.85232847735441    1.75237928487036
C         4.27433448199053   -3.68995153766823    2.21653134228493
O         4.17814622775485   -3.25010865649724    3.58481495119045
C         3.85117101270296   -1.88622310608577    3.23963924114562
C         2.52436782946860   -2.02032815894621    2.45194427189609
C         1.40467446578897   -2.24262690474050    3.47215794866558
O         0.21928700687303   -2.34119237431606    2.69370730874891
C         2.89717472530120   -3.31028339066921    1.66361597847893
C         1.90398976608080   -4.45202169035017    1.85016416161861
C         6.27514100492161   -1.19858796486010    3.11654000932468
O         6.24066636460509   -0.30573052487358    3.96092760498501
H         3.67693842197965    2.43335449636424    0.24000173386786
H         1.98167567808319    2.53113627372257    0.82869686397889
H         2.64203358993813    1.05713392787949    0.08441295117439
H         2.78285883665990    0.60767019042938    2.53956909486528
H         3.59955346513190    2.18045067157623    2.82286772812912
H         4.06890036156494   -0.62182418856948    0.59338276566810
H         5.84828943424693    0.40587451257774   -0.34369792699668
H         6.61823037458605   -1.17253303139987    0.06288124320045
H         6.91120343438692    0.33155394834683    1.00391783760677
H         4.56945079149563   -4.73864503556786    2.12533306512491
H         3.78834030533738   -1.16307745880758    4.05464334623815
H         2.22456188517641   -1.22703768980790    1.75953532933471
H         1.49262567548193   -1.33159546170050    4.07506200123918
H         1.41337085724357   -3.10060814536162    4.15059971920703
H        -0.50411415198796   -2.09151444252976    3.29308827880516
H         2.99001888837398   -3.13925807477765    0.58384114714816
H         1.92732538713223   -4.67085785576062    2.92192559732424
H         2.16059759235727   -5.42226900661681    1.40859160799297
H         0.86714375866178   -4.21187223633561    1.59633306754373
H         7.27012565434005   -1.56517301870708    2.81831022855392
