37
 energy: -56.177113288080 gnorm: 0.113510671133 xtb: 6.4.1 (79825abcba525fcdf90b791dcacef51065a7a4e7)
C         3.82243559196812    2.82243173007946    1.39897866335985
C         4.72389547744156    2.05481349134012    2.34825289969591
O         5.26620780166804    0.86437825953644    1.77268352638801
C         4.32662379804069   -0.16769522993420    1.42256810482009
C         4.31745667013342   -0.56335242302501   -0.06011442470837
C         4.73609076682806   -1.35734527878915    2.31902042148325
O         5.16039589327708   -2.55843464103926    1.64423758558652
C         4.55969010179368   -3.67764180151340    2.32591106243662
O         4.28483648044454   -3.12405780057568    3.62703142898080
C         3.58665817238595   -1.95326126520286    3.14951140328852
C         2.56163678096543   -2.52963774636911    2.14155531086562
C         1.16768073580131   -2.43031048496353    2.76684445373626
O         0.15514344624535   -2.63841374122783    1.79098317495756
C         3.13441453218211   -3.94401279103858    1.83187833912711
C         2.51171212957507   -5.04050289822730    2.68904464774851
C         5.88000302121961   -0.77244791256648    3.16391335542541
O         5.80085797841399   -0.56216308463412    4.37258603666042
H         4.30189165200099    2.80558549685646    0.41521245153232
H         3.63870252682902    3.87910627217589    1.62069747494170
H         2.88432642112512    2.26936664931478    1.29291868289014
H         4.16234369650509    1.84921428220113    3.26319163900628
H         5.58113504093172    2.67354108982092    2.63317490860160
H         3.32300874745382    0.11808087674287    1.75863966132327
H         3.87518370236299    0.29181456667815   -0.58071850294985
H         3.59572902560856   -1.34201119529520   -0.32702218906104
H         5.36311526496794   -0.73434268918020   -0.33078422909634
H         5.23042750031080   -4.54009979285428    2.28788000135039
H         3.25827449851112   -1.36348661824069    4.00709464723493
H         2.56006814069704   -1.93533277542832    1.22208663333393
H         0.96935022378169   -1.37822398886153    3.00133540206861
H         0.87512880052935   -3.02717570303189    3.63555380471029
H        -0.04927084981486   -3.55890841578783    1.55474135093047
H         3.22295441216998   -4.17972230028065    0.76399019632709
H         2.69767208366266   -4.68351629927983    3.70643633971367
H         3.06564384927221   -5.97727388861839    2.55550247608645
H         1.44537443767934   -5.10436690752471    2.45240791992166
H         6.85484060452757   -0.79181791708182    2.65143259628821
