37
 energy: -56.173586077881 gnorm: 0.110396328964 xtb: 6.4.1 (79825abcba525fcdf90b791dcacef51065a7a4e7)
C         5.00906673411905    3.21631674921960    1.77319608689173
C         4.02736475525369    2.09619093447956    1.48238919710433
O         4.78400557104836    0.90999863331713    1.23146829993390
C         4.16251706572281   -0.35261906143613    0.93126306307675
C         4.73045413174939   -0.79376052532379   -0.42439833350865
C         4.54732724421587   -1.33353574774666    2.06098902007795
O         5.10545401616025   -2.59609490139868    1.64575263880574
C         4.55598490255204   -3.57256718094412    2.55280082897507
O         4.29004111851826   -2.85564030053260    3.77353983180379
C         3.52774993595145   -1.83009638569112    3.10017910451681
C         2.38236708539785   -2.67364697400245    2.48750082935581
C         1.13165750014673   -2.79563634254820    3.36203497336730
O         0.06436624451100   -3.03409403783031    2.45381073792321
C         3.12785611069839   -4.01377652347588    2.21781615119697
C         2.76156782719834   -5.24964602564392    3.03221308285245
C         5.63146645078115   -0.54755311731077    2.81687111417913
O         5.35759581639913    0.14104303337509    3.79779084635862
H         5.79579844735730    3.11212516567708    1.01943538556811
H         5.46359468856257    3.06193838452447    2.75759936764375
H         4.47826473866357    4.17287885472425    1.79360931733273
H         3.50725814398251    2.46394873631566    0.59415068974520
H         3.33278929012135    1.90358771708426    2.30660578521586
H         3.07500535203786   -0.21505736348593    0.94708325389975
H         4.38329665026929   -0.14693969605787   -1.23621669766788
H         4.48756225389710   -1.79752480075040   -0.78757989114881
H         5.81239813626780   -0.90649117962146   -0.31219014248565
H         5.39130105585118   -4.27704069438499    2.58645783090317
H         3.32462141393886   -1.03923509944224    3.82433116753886
H         2.03289860147226   -2.41332604879975    1.48314616862087
H         1.09197712893481   -1.87617414529325    3.95720025932609
H         1.23819426504832   -3.68783510172837    3.98583137535121
H        -0.79446222399439   -3.01698833979680    2.90881283363850
H         3.00394304864126   -4.34120788686827    1.17800000692091
H         1.67083974767473   -5.32828912044823    2.99708609537484
H         3.13088939100527   -5.07534352478267    4.04977584038645
H         3.21619777521693   -6.13943537535395    2.58641251844448
H         6.67532588446266   -0.64380181738618    2.47862015041674
