37
 energy: -56.182700080826 gnorm: 0.123455922802 xtb: 6.4.1 (79825abcba525fcdf90b791dcacef51065a7a4e7)
C         3.05241158877933    2.57521027148330    1.64945317674871
C         3.27913088492668    1.08399189396907    1.81635248250433
O         4.52150115675111    0.75002531467048    1.19385650860395
C         4.74316028491413   -0.64264649162365    0.90766239694138
C         5.88257208185351   -0.58290580297672   -0.11856757862644
C         5.00285735316767   -1.55503908450883    2.12694677577614
O         5.19319023876728   -2.91416865257809    1.68589959287738
C         4.35263831635013   -3.70116898241264    2.55322525772172
O         4.40902527064500   -2.99087541202637    3.80511084789798
C         3.93934058197868   -1.75677027765693    3.21977020655537
C         2.60331408702240   -2.10585225599454    2.51832228190268
C         1.43058088184011   -2.01695136822736    3.49850560951238
O         0.18795630926065   -2.40787493377736    2.92937740844182
C         2.90467350539279   -3.56675536874731    2.07180736721697
C         2.02739680434551   -4.72296389205104    2.53908712233102
C         6.28986602721469   -1.03440712772955    2.78803324872491
O         6.44073069250456    0.11877731791540    3.18650382907990
H         3.03570099299069    2.82118630737845    0.58306937366763
H         3.98663602055686    3.01113136332496    2.01914990945764
H         2.20334712911807    3.02282005533112    2.17472790939260
H         2.48083868203036    0.62003186192039    1.23137813628695
H         3.11597246066573    0.73047456122216    2.83971404368757
H         3.85742010426477   -1.10642941706193    0.45796807050509
H         5.54222562591243    0.07745723817281   -0.92232718968562
H         5.97932675718719   -1.58094736650347   -0.55787568578792
H         6.75721141986746   -0.09282565704692    0.31815795637321
H         4.77604519106084   -4.69977569473585    2.68990029961300
H         3.88480316295301   -1.01360907328656    4.01717606641328
H         2.36291820474134   -1.53935470763592    1.61283133011017
H         1.26404791560137   -1.02649031001905    3.93720899072060
H         1.53891476899931   -2.73970011202530    4.31237826193436
H        -0.04845227838331   -1.68604193925373    2.32276883562652
H         2.82754244229929   -3.55661620678307    0.97739821973309
H         1.01673597334366   -4.31827269967165    2.64815643918404
H         2.21892017804713   -5.15211957304138    3.52972224662403
H         2.12411961528914   -5.57973128508340    1.86548044195088
H         7.05237376083014   -1.81582785273561    2.93392246772132
