37
 energy: -56.182557303296 gnorm: 0.113717821046 xtb: 6.4.1 (79825abcba525fcdf90b791dcacef51065a7a4e7)
C         3.08406014423544    2.49103186878329    1.79773777467145
C         3.88134278528318    1.61563595455203    0.84852142835936
O         3.80504316396610    0.32604548631018    1.45979358860712
C         4.58147119486999   -0.76198264483111    0.92694364832222
C         5.71862712486197   -0.40626484859846   -0.04017453286203
C         5.02313652406956   -1.59226668251063    2.15255276799242
O         5.28516886553153   -2.96573443490452    1.80197039992995
C         4.27081803584035   -3.74698890125865    2.46445418991472
O         4.25600109072828   -3.12318012620801    3.76274424623344
C         3.93492478753538   -1.82615922865549    3.21421007718455
C         2.55163224566456   -2.21016021838931    2.63291896695854
C         1.63635143437677   -2.22523630989182    3.86011077213864
O         0.31868658565981   -2.58392820179948    3.46521398723302
C         2.85432312585691   -3.55726324911969    1.91311155513220
C         1.95849492390034   -4.66195593818442    2.46259210309309
C         6.28671664701224   -0.91977432656726    2.71433911685682
O         6.37311549028779    0.25270229739726    3.07379321441315
H         3.54222797980670    2.74449695515507    2.75888061504937
H         2.11747249821075    2.05719934631609    2.07518296007526
H         2.95145676327983    3.44829431186103    1.28466518336043
H         4.91742100994307    1.95392904710084    0.76591360943065
H         3.40964596060844    1.62310930788066   -0.13956274639944
H         3.90417996658656   -1.34103712034283    0.28832962514484
H         5.19032560029839    0.01662274612356   -0.90041181587215
H         6.18184401432386   -1.31901374517438   -0.42845233078981
H         6.45665623370359    0.29737330628089    0.35493069308352
H         4.66960849427768   -4.76460670461847    2.44018445003988
H         3.92151198219665   -1.06777786924918    3.99893737727606
H         2.15500532561448   -1.48384566771426    1.91613599020672
H         1.61958638003910   -1.21457783689882    4.28377974742083
H         1.89205447355161   -2.95319560189299    4.63546999187617
H        -0.11920087711727   -1.92948034558958    2.89525045369293
H         2.88540657749521   -3.49620569867617    0.81808223642412
H         0.93531671842558   -4.27795741379131    2.51510776631492
H         2.18968244489381   -4.91278141984429    3.50463465059409
H         2.01651676944872   -5.54447159979534    1.81842503549631
H         7.17477239947296   -1.53612218985401    2.92598141779149
