37
 energy: -56.174263363173 gnorm: 0.120914742670 xtb: 6.4.1 (79825abcba525fcdf90b791dcacef51065a7a4e7)
C         3.94668410543305    3.01345525461325    1.72158893991109
C         3.94549722469624    1.51575317109780    1.96628531464281
O         4.75782515313609    0.78971667618738    1.04134578438828
C         4.50934726923188   -0.61054011523825    0.82199621526351
C         5.36895469739970   -1.03168162767739   -0.37745825133348
C         4.79129956347217   -1.47095031056960    2.07369680373977
O         5.18283342732915   -2.81118199195522    1.71527995859696
C         4.40978240908742   -3.60444935968632    2.63792282892353
O         4.28758046816704   -2.75189738907367    3.79253782691574
C         3.64072142379469   -1.67943773353085    3.07306127157673
C         2.41142310267027   -2.31531761330297    2.37783712262608
C         1.30207736458889   -2.34374266295197    3.43259299275969
O         0.14035724768415   -2.77058577920403    2.73326810543555
C         3.01719487082199   -3.70099420635023    2.00719995930554
C         2.36632204070163   -4.93962462667213    2.61295747333117
C         5.89254605318360   -0.61958095742339    2.72708080171437
O         5.70033410551574   -0.02257382412040    3.78444088889978
H         4.10882556745981    3.30618156470788    0.67948562458462
H         4.64453398312238    3.47377767143031    2.42911065637380
H         2.93806117521073    3.28476258893388    2.04755003368422
H         2.96139906656642    1.04304816856872    1.91313338377567
H         4.36812948762384    1.36983104771827    2.96576155884053
H         3.47756113052784   -0.76127204345379    0.48354018945687
H         5.11944488756237   -0.44085217375829   -1.26436860072467
H         5.19666511093117   -2.09841253193645   -0.55307576677256
H         6.43512870244756   -0.83178733580909   -0.23883298202723
H         4.96876331282832   -4.51946733024801    2.85111587650747
H         3.24856688708473   -0.84440620330314    3.65620460939199
H         2.05634747388034   -1.68911135482254    1.55296711259059
H         1.24601556469428   -1.32681254682722    3.83745989667282
H         1.52976013646477   -3.07153119195965    4.21679646468831
H        -0.64166369515107   -2.51829540523213    3.25259330701810
H         3.29312573801914   -3.78536715828957    0.94865060275531
H         1.27873113625992   -4.97781771080809    2.49984822641846
H         2.45494119225822   -4.94968858786730    3.70577910267189
H         2.84283398097465   -5.80175415929699    2.13670053841318
H         6.90129344479900   -0.71414521893065    2.29486980951249
