37
 energy: -56.177758736054 gnorm: 0.126061380422 xtb: 6.4.1 (79825abcba525fcdf90b791dcacef51065a7a4e7)
C         2.93679103369306    2.37073159611756    1.97087723309787
C         3.41488252468657    1.42711797244010    0.88275448083451
O         4.40364777682171    0.63886248494048    1.54872397870228
C         4.70485851621177   -0.66585254716995    1.02187922943012
C         5.92792561013071   -0.62927306674986    0.09573400283311
C         5.05324260492672   -1.54070052415397    2.24655337519242
O         5.29998776766276   -2.90671965862582    1.85784918201644
C         4.32923451489591   -3.65221319892778    2.61944511490245
O         4.20539436008356   -2.88132622641771    3.82994536856685
C         3.82998703119300   -1.65123144289725    3.17254212353278
C         2.52532533713845   -2.17689459488713    2.52416699163392
C         1.42140913661135   -2.24626174049815    3.58271462981833
O         0.12344721658213   -2.29718977109807    3.00518094519484
C         3.01144454628584   -3.49577589029957    1.85433776183497
C         2.05962716567433   -4.68011582174213    1.98148146064370
C         6.29459506873457   -1.08384120305931    3.03065022626841
O         6.46811862387540   -0.00929246833851    3.60214640849962
H         2.35875467680595    3.10996699131730    1.40752754507692
H         3.76957878727557    2.83334318321912    2.51118569870289
H         2.28383165376026    1.89939859301296    2.71159834746000
H         3.88387713144519    1.82268982247121   -0.02184007433393
H         2.65071146625188    0.80254586468582    0.40860646663721
H         3.79303843858599   -1.05755406837933    0.55603664726569
H         5.79293301892340   -0.39860866178717   -0.96564033848512
H         6.17411863401711   -1.69192343644587    0.00298038049679
H         6.76266687701731   -0.11202371969096    0.57694273309833
H         4.61281194602886   -4.67519325540520    2.88071979362065
H         3.76504380603633   -0.75560741917562    3.79283157171987
H         2.19748475101288   -1.47150380710200    1.75373341262189
H         1.58275925931349   -1.34975343244010    4.19217831551663
H         1.58887701551922   -3.11229542165109    4.22957693436194
H        -0.00914441332622   -1.38272184932958    2.70339669629722
H         3.32601749457806   -3.30236019551247    0.82117871991779
H         1.05784134187768   -4.32773671997843    1.71811760030470
H         2.04223395404204   -5.02423615058501    3.02239088291883
H         2.31306279746467   -5.49073860778984    1.29168967769896
H         7.03319793796302   -1.89998214257497    2.98942139438081
