37
 energy: -56.174944780699 gnorm: 0.129928952006 xtb: 6.4.1 (79825abcba525fcdf90b791dcacef51065a7a4e7)
C         4.82603586420302    3.18303548946437    1.79459975481043
C         3.97086558525825    2.00686586782817    1.36066648067543
O         4.83539259204147    0.87476593144572    1.24464232810828
C         4.14090431429988   -0.34992295616478    0.94732468437892
C         4.68927036404801   -0.88188098903733   -0.38357406370140
C         4.51991833593152   -1.29623803862754    2.10809742059054
O         5.04769849319231   -2.57213735838694    1.69395802209550
C         4.53392076900884   -3.53858253226349    2.63213019705200
O         4.43436637591446   -2.80503184506254    3.86781068793582
C         3.61650390502147   -1.78567199483646    3.25279091599796
C         2.48650222991763   -2.61963258693202    2.59975177798560
C         1.13822308840875   -2.70654777131690    3.31985937866358
O         0.12933240775737   -3.11450813827544    2.40522727212571
C         3.13311861520341   -3.97659058229106    2.19357056611404
C         2.64119672971110   -5.24315954707272    2.88537893254098
C         5.69938726813262   -0.54790262393107    2.75100601463025
O         5.59291440809043    0.01526587094878    3.83860801208325
H         5.64374551815422    3.24817560622782    1.06998567962004
H         5.22652580108207    2.88220121902293    2.76855289242633
H         4.27445659110281    4.12798905173037    1.79586160750610
H         3.41117322098665    2.19270953560834    0.44037797794450
H         3.33588973910015    1.75714703883497    2.21700184052599
H         3.07490789421201   -0.10170318193209    0.88492421746188
H         4.47604650730930   -0.15082776095697   -1.16973011142054
H         4.25386482481139   -1.78966286226647   -0.81345093036381
H         5.77518668780778   -1.00035002584210   -0.33207127105864
H         5.37781071511699   -4.23195672746776    2.67957269117481
H         3.33027628690771   -1.10417657924548    4.05575837306927
H         2.20898293206258   -2.13053255578358    1.66039683627314
H         1.01765095269973   -1.69769007777491    3.73080402257147
H         1.17267907811689   -3.47497818536205    4.09755992723261
H        -0.72188582422208   -3.04662792938263    2.86969002557436
H         3.12818833635788   -4.14620092683198    1.10960037004435
H         1.60385833204058   -5.29442146311153    2.54127480183250
H         2.74423795951423   -5.07951466191452    3.96464562934158
H         3.15160277274140   -6.12867248963368    2.49486117292361
H         6.67872818389942   -0.63626969117973    2.25461635291952
