37
 energy: -56.178908781071 gnorm: 0.115615419327 xtb: 6.4.1 (79825abcba525fcdf90b791dcacef51065a7a4e7)
C         3.11162769058493    2.61882622773889    1.62681204160736
C         3.77385908676114    1.55408704721432    0.77196157375393
O         4.19545557399873    0.53160472930428    1.67711632218396
C         4.71278321108660   -0.64930301812276    1.03805168835584
C         5.91910043865994   -0.45499925175019    0.10960087585370
C         5.00482517492586   -1.60455058225793    2.21651287483167
O         5.18448526521659   -2.92530426342165    1.66759180229945
C         4.26992091377792   -3.73970798582231    2.42816361041021
O         4.27155604951146   -3.14956781466155    3.74218258750349
C         3.88381855272221   -1.85185814004313    3.24033392649202
C         2.51648596096383   -2.14699423862646    2.57538997762998
C         1.47768209148305   -2.09123733822807    3.69866356661458
O         0.14893630522522   -2.54525230774045    3.47696783552495
C         2.86340989318313   -3.49304406119300    1.87380277327415
C         1.92860998463240   -4.67520793363704    2.10493178639790
C         6.18035677555998   -1.01399032269132    3.01265875949912
O         6.15850685481855   -0.08981084001304    3.82308343418381
H         2.80782184671058    3.42967227931583    0.95734317762416
H         3.73300352062724    2.97948539114200    2.45342876425367
H         2.15664114660568    2.31173378646281    2.06370270729358
H         4.69860625058504    2.02091472395039    0.42319382562353
H         3.19002050194841    1.25864676921563   -0.10594024892618
H         3.86682232302700   -1.06002599901935    0.47456961484267
H         5.84569072666790    0.13344071646451   -0.81034149540160
H         6.22581514172175   -1.46311262953450   -0.18717099514257
H         6.71709708584850    0.04005423694992    0.66998030053053
H         4.58181320650313   -4.78710065758461    2.39882769193203
H         3.90552164220950   -1.03438892330782    3.96310087571236
H         2.29671693818234   -1.42855126613245    1.77904534467599
H         1.51827729603764   -1.01937644650852    3.92377076770865
H         1.88464720613120   -2.64400387636246    4.55032031333211
H         0.15071422570548   -3.25633779309272    2.81420081637418
H         2.84487034335067   -3.18654956966955    0.82047433989017
H         0.91797541524020   -4.45175898839292    1.75025626876016
H         1.91487809568615   -5.01850047042511    3.14616923141135
H         2.36311646507400   -5.46166783509760    1.48056285081417
H         7.12636195794487   -1.48658701775162    2.70436247778579
