37
 energy: -56.178637860866 gnorm: 0.121492634419 xtb: 6.4.1 (79825abcba525fcdf90b791dcacef51065a7a4e7)
C         2.27081666371631    1.93700156493134    1.93071286667801
C         3.21418620086898    1.26760873481979    0.94839091203939
O         4.20185671749078    0.56983192087418    1.71005571736569
C         4.89711279200954   -0.49757561969163    1.04085116086354
C         6.25974155390244   -0.06642230410779    0.48198996981790
C         5.07717146890522   -1.66432703164788    2.03725832678403
O         5.16622398701644   -2.95526913421598    1.40202565258441
C         4.26501391634370   -3.75849967472934    2.18992918545276
O         4.41700864766551   -3.31175359460579    3.55089557815404
C         4.07812226500540   -1.96071761121711    3.16866443300868
C         2.61925561610007   -2.11422707732188    2.67167634288019
C         1.39852024285484   -1.95135640092879    3.58120599477878
O         0.64361507494047   -0.90367877956646    2.98678714781314
C         2.78365605255204   -3.47132162225178    1.92622488477710
C         2.04075510321235   -4.72006050720855    2.38832045704218
C         6.39721221176625   -1.41081204583713    2.78405609253029
O         6.57985773955884   -0.50602642504552    3.59607636027768
H         1.31613359228927    2.07968788812238    1.41478775941823
H         2.68646441953697    2.85993934536170    2.34892448442355
H         2.16461996147402    1.15632781059622    2.68995543077614
H         3.73470856358036    2.03656601564652    0.37177534901478
H         2.68818023272877    0.62799064945513    0.23210152296730
H         4.34355960167600   -0.84292844569390    0.15984858249425
H         6.11632778514432    0.64845188332981   -0.33430161584725
H         6.65812987522508   -0.98166275518240    0.03247722610160
H         6.99806663074646    0.34822240584361    1.17397808638801
H         4.51980569503945   -4.80699808153300    2.01414220035479
H         4.10073796716663   -1.22946815062319    3.97852971582670
H         2.50558070234364   -1.31867599962199    1.92817111250913
H         1.75042652615987   -1.76465444820373    4.60224044417747
H         0.84808295801863   -2.89581569612702    3.62001461940984
H        -0.27874272292958   -0.93337823615383    3.29220471120888
H         2.61496420409351   -3.38192458112229    0.84579227754659
H         2.25861144612843   -4.99391926147625    3.42497198525867
H         2.44089194292193   -5.53367397034299    1.77176762201025
H         0.94803592858282   -4.71278879624273    2.33297103786642
H         7.15715577705134   -2.18038414493201    2.57533467902153
