37
 energy: -56.179348353482 gnorm: 0.120593204698 xtb: 6.4.1 (79825abcba525fcdf90b791dcacef51065a7a4e7)
C         2.65953464400606    2.43882171314510    1.41491131437323
C         3.42277519507455    1.32784003857031    0.71765035710979
O         3.91980455611519    0.38510938927596    1.66987908042066
C         4.72320537323803   -0.67011370148643    1.11164440906854
C         6.03632751683887   -0.12954531724539    0.52986076495733
C         5.09256021993454   -1.68859749997085    2.21292772519447
O         5.22889886907698   -3.00821105099361    1.64900022526088
C         4.30427235329599   -3.82420710304558    2.39557045136737
O         4.37314217605918   -3.28251998203144    3.72851680354436
C         4.03364995112977   -1.94608399319359    3.29848572869396
C         2.65245474068569   -2.16679583868644    2.63332389263550
C         1.52435549814530   -2.10379582811378    3.66646907902364
O         0.29578899182468   -1.80929322855905    3.01475094531992
C         2.89507320483499   -3.50990288831340    1.88390366020152
C         1.95217715444642   -4.65003914530762    2.25244031929681
C         6.35294924004307   -1.14190357506613    2.90360096709953
O         6.33601306565133   -0.26246566776224    3.76248130430146
H         2.05505383122221    3.01101750034843    0.70417029515890
H         3.24840013585026    3.15163910994291    2.00194363914623
H         2.03182039719809    1.99591846905088    2.19400698282455
H         4.35224530982644    1.64928642713067    0.24069976896862
H         2.98130373639000    0.74563490233600   -0.09782753500608
H         4.17234871509230   -1.08675252844725    0.26027829111612
H         5.71850868668051    0.52166516477647   -0.29042008150313
H         6.59221772149787   -0.94269002341867    0.05213510466815
H         6.62862201363228    0.41029415359147    1.27394562959302
H         4.68027007365433   -4.85063118223728    2.37981821418434
H         4.13397028667054   -1.25164168954823    4.13443113396644
H         2.46098590244660   -1.25600698597624    2.05675918395241
H         1.79150210084345   -1.31704825908718    4.38121934865472
H         1.39490459094306   -3.06361727524075    4.17487434925134
H         0.41816700128174   -0.94711914910426    2.58279570268834
H         3.01966193209914   -3.37647173363995    0.80202698166557
H         0.86968781802098   -4.52449484148842    2.15465561243984
H         2.06020286529092   -4.95093894182613    3.30125083909808
H         2.13251357376565   -5.50356095799334    1.59203823203592
H         7.20463881872731   -1.79184918202957    2.64764077578603
