37
 energy: -56.175801483920 gnorm: 0.122139469341 xtb: 6.4.1 (79825abcba525fcdf90b791dcacef51065a7a4e7)
C         5.96774519822950    2.95227524701859    1.30465941435028
C         4.67675004916864    2.16350443341259    1.18565777110836
O         4.98524999940036    0.77250994396961    1.07393978218052
C         3.91471488481367   -0.16782388020319    1.27469199961385
C         3.58514156840267   -0.81466968337491   -0.07732429060668
C         4.34131475454350   -1.16228318380087    2.37724377272672
O         4.98361819797272   -2.29620309643329    1.76108283860235
C         4.56391021433600   -3.36224732494779    2.63603756292236
O         4.24148780022302   -2.74473014390880    3.89684297399555
C         3.31164785991800   -1.79764162934698    3.32705013153930
C         2.33604820492365   -2.73858322329819    2.57759139240867
C         1.16972634984968   -3.18202879318831    3.46473017515742
O         0.08108564742620   -3.59682425590227    2.65008294622624
C         3.25312057617098   -3.87043523365150    2.02775484797344
C         3.01685697807826   -5.33024417605592    2.39913102933209
C         5.34824943240432   -0.27852921843081    3.13192632136287
O         4.94379389602271    0.51274551413739    3.98143990385427
H         6.59163672089622    2.95844362782790    0.40539349855210
H         6.72618102310048    2.77237298625696    2.07400227317979
H         5.48043414559679    3.92600180901543    1.41219099915982
H         4.16696677247781    2.47917983858085    0.27176807122521
H         4.12077339615742    2.35941397804081    2.10835678590546
H         3.01873868517833    0.33656457519293    1.65505258193555
H         3.51182609156892    0.04196666963996   -0.75463039588003
H         2.66285463381008   -1.39932389756025   -0.15482451125059
H         4.39487837910706   -1.38145867030792   -0.54527539935228
H         5.35496206111423   -4.10511776555476    2.76851130990325
H         2.82457032117215   -1.21112632340542    4.10799458921169
H         1.94401308936989   -2.08889585481318    1.78839034193603
H         0.74755782441806   -2.28655718424740    3.93495493382269
H         1.51526639896423   -3.97956138592055    4.12883445955000
H         0.30636233469362   -4.40284559938353    2.15562783322859
H         3.40241927123776   -3.73576391930006    0.94916460754497
H         2.28921213194612   -5.79212976251852    1.72511243295508
H         2.71155127680537   -5.45681561572238    3.44458874960665
H         3.94109381284249   -5.89076354443219    2.22955528390622
H         6.40200650624566   -0.44849799006819    2.85984785729400
