37
 energy: -56.166586163380 gnorm: 0.128231101649 xtb: 6.4.1 (79825abcba525fcdf90b791dcacef51065a7a4e7)
C         3.81451709780466    2.78905160846129    1.76588595420158
C         4.65365139261624    1.73894448250554    2.47024235237902
O         5.32812928687212    0.87761646527185    1.55061610100856
C         4.52457611700377   -0.22076695710133    1.08325028467743
C         5.14873608363325   -0.64289451252404   -0.25361502168423
C         4.56475491538268   -1.25423292064074    2.23080901149266
O         5.13480234310085   -2.48911816482001    1.75322467118171
C         4.44307968704198   -3.55553655715019    2.43324114619045
O         4.16068512760747   -2.94756069849088    3.70820491525197
C         3.46688496674493   -1.80787461159157    3.15503242329113
C         2.35353364776286   -2.42348528666795    2.27167151942562
C         0.97646923714715   -2.51120780037276    2.93496945908572
O         0.05146544473734   -3.14475929703024    2.06099896894062
C         3.03694410424220   -3.76104810940972    1.86141955151077
C         2.56037559916398   -5.14545106214490    2.28697064885095
C         5.69953915278989   -0.75709480095467    3.14163433934689
O         5.61019879477164   -0.02356416695875    4.12414360159193
H         4.34207851540371    3.11008434137247    0.86224066575681
H         3.62506146994528    3.63763851627007    2.43183264007426
H         2.85930028360522    2.32818219188065    1.49692732895690
H         4.06037012351552    1.05461978234402    3.08215851133813
H         5.58455421482868    2.07575598557631    2.93804788724653
H         3.53803211560135    0.23452077294323    0.93730752984270
H         5.26142099140734    0.22633833676156   -0.90911554838392
H         4.64603021355816   -1.41717608768209   -0.84201530849568
H         6.18363508382354   -0.95013436794375   -0.07900272777017
H         5.05200645476160   -4.45966435761106    2.51648709648307
H         3.06810230121272   -1.16367669758797    3.94058982314588
H         2.30351546361759   -1.82552947377883    1.35593656871510
H         0.66643983189501   -1.48027169049586    3.14054054535121
H         1.10176328623518   -3.07200900388548    3.86571864775628
H        -0.83259135903234   -2.97255405388503    2.42664192289400
H         3.11435047728034   -3.79913461719548    0.76764581192699
H         2.42092675754883   -5.11798933787030    3.37182374321816
H         3.35911116742232   -5.89382008678189    2.22232535339273
H         1.63430892841864   -5.51201952796181    1.83400302244674
H         6.65200511756708   -0.92002514656565    2.61287884326764
