37
 energy: -56.178150187676 gnorm: 0.119047807148 xtb: 6.4.1 (79825abcba525fcdf90b791dcacef51065a7a4e7)
C         3.86981935164306    3.09585535981904    1.78613209033956
C         3.30212593681076    1.69346217406126    1.66778161659887
O         4.24367113390705    0.69279808816406    2.06107908211932
C         4.56430317462953   -0.42269680917965    1.21052573846328
C         5.71092419448973   -0.13787699794287    0.23118194834096
C         4.90020250795995   -1.57629517808599    2.18157673768537
O         5.17316422244313   -2.86017562164784    1.58565263192530
C         4.36134958142119   -3.85308386488804    2.24386320202632
O         4.42284725161069   -3.31174350498160    3.57731086518564
C         3.83898310781135   -2.04871690547858    3.18987127947084
C         2.51232290011513   -2.39160571432853    2.46789177707788
C         1.23351383327320   -2.24325157748579    3.29650778102760
O         0.10376138319725   -2.35074419466525    2.44038351142620
C         2.87855698447563   -3.78032237871222    1.86641878304034
C         2.10566428667237   -4.99043079054027    2.37931014816913
C         6.09895327470396   -1.18628747362715    3.06213065699354
O         6.55138023925350   -0.06544138678981    3.28660190536973
H         4.04110954672155    3.46344074127564    2.80274338926640
H         3.11197461641436    3.71297137554539    1.29184740837576
H         4.77859363921099    3.26338150965125    1.20026281211373
H         2.94838615453852    1.63866663174282    0.63502318769105
H         2.42361744809029    1.44220833788129    2.27107128748990
H         3.64707791073247   -0.67319589734281    0.66481207800468
H         5.42576435181006    0.67853878901039   -0.43970830791000
H         5.71646046840865   -1.03778275476153   -0.39217914860733
H         6.65302618770033    0.07208580634204    0.74524538193817
H         4.85168580202801   -4.83006864256952    2.22837114781896
H         3.70669343366967   -1.33852277066311    4.00794394599019
H         2.32935189760335   -1.67080331828754    1.66440616408388
H         1.18511776815668   -1.26667583945672    3.79164886239922
H         1.18362463492533   -3.01392748903854    4.07114345451559
H         0.21382890709404   -3.09917516741402    1.82993934575553
H         2.77075531112985   -3.78367807410444    0.77456211244456
H         2.50202741834687   -5.16803335358405    3.38353124569327
H         2.38703309319027   -5.90638136370977    1.84631866321860
H         1.02525672817612   -4.82277293454592    2.33733389265542
H         6.49956423070731   -2.03574374857677    3.63767828504016
