37
 energy: -56.180384987828 gnorm: 0.111767522328 xtb: 6.4.1 (79825abcba525fcdf90b791dcacef51065a7a4e7)
C         2.89838350288537    2.31010746374470    2.38090507145038
C         4.07319997728800    1.53746822274720    1.81009502082223
O         3.61196244560217    0.30444012374444    1.25383929296143
C         4.47674926206969   -0.71103902979309    0.71391297596822
C         5.60502910202553   -0.18267103209610   -0.18207138876117
C         4.93713451763178   -1.67934017453014    1.82611596578043
O         5.06839858954247   -3.05937442159447    1.43082164389560
C         4.42468433644353   -3.81229110901396    2.47815123758109
O         4.58687573216124   -2.97167639437583    3.63658760786072
C         3.96039988235943   -1.83415921106764    3.00427002183722
C         2.58144389272194   -2.29971061796755    2.47455643010594
C         1.47313186834058   -1.86173025223842    3.43569302527895
O         0.26105722681457   -1.85673948195496    2.69293187208133
C         2.90442668890667   -3.81172957395543    2.29040497275153
C         2.11943013310101   -4.81797350505605    3.12469298221256
C         6.26445698310090   -1.21225828341020    2.44622390105145
O         6.43014698674667   -0.10904557561607    2.96279127425536
H         3.30491370299351    3.15554718440332    2.94475145407365
H         2.39316596977242    1.63535677949932    3.08015103526211
H         2.16722448758058    2.53390111478820    1.59828037527664
H         4.71738842783857    1.34257665037992    2.67135157234632
H         4.57146444328337    2.18319147565612    1.07958967655118
H         3.72343536674468   -1.21170901031582    0.09447533287741
H         5.10815481556048    0.35457185818005   -0.99596977451600
H         6.11397884141335   -1.08536016378609   -0.53500556505085
H         6.24134685663480    0.52686275717841    0.35417782813253
H         5.00710744170456   -4.73734436300107    2.49327125023095
H         3.93958626129150   -0.93575123131952    3.62358328198631
H         2.40118200718631   -1.76900635320659    1.53408731332412
H         1.68749039593253   -0.82035546012216    3.70176813115487
H         1.34000936356442   -2.51514757946182    4.30276561008869
H         0.38158512113332   -1.13599054599874    2.05191716743693
H         2.66565929933111   -3.90988996393875    1.22403821774628
H         1.81070694790633   -4.51798819518514    4.13057826269206
H         2.77863284895001   -5.69145024757181    3.19327805711836
H         1.20204559469952   -4.92516429193567    2.53812041781712
H         6.96515426579326   -2.06026758237708    2.50300067621993
