37
 energy: -56.178628256864 gnorm: 0.118275837446 xtb: 6.4.1 (79825abcba525fcdf90b791dcacef51065a7a4e7)
C         3.94498434954463    2.49712085214038    0.84091702467570
C         3.59218986929892    1.44188771926269    1.87290944460762
O         3.15419052221026    0.28963638691174    1.14972741914688
C         4.16120106032270   -0.66153169138468    0.76013319549717
C         5.31757019157782   -0.14141333947353   -0.10431083527098
C         4.75317745942208   -1.42279471969937    1.96702994490625
O         5.15165235967380   -2.76415610637309    1.62069224368812
C         4.49194498186188   -3.58922148692709    2.60161230279147
O         4.53483555742043   -2.81904901382763    3.81812729978670
C         3.88447457828038   -1.68190480057497    3.20970598569174
C         2.54215502313084   -2.27402361452592    2.71329108080585
C         1.71422822782160   -2.54000429264491    3.97335354605562
O         0.33136760201080   -2.75004525006963    3.71953616342211
C         3.02105667834965   -3.65597545210122    2.17916252632595
C         2.34197929376813   -4.95775505809054    2.59026677099181
C         6.02888485977083   -0.76853142211011    2.52290264921042
O         6.12794631611286    0.36141825716138    2.99700587159661
H         3.40407983839727    2.34438154234270   -0.09825861488907
H         4.99078164917310    2.50196691300966    0.51570527248754
H         3.68093514727075    3.46778652638632    1.27134087165878
H         2.77983174544053    1.79509618645310    2.51325497167101
H         4.45372262706859    1.29458970160957    2.53240065894323
H         3.56845068769573   -1.38500822997533    0.18822065760264
H         6.06617465100022    0.13803872698498    0.64364803798900
H         4.94852724913791    0.66837019686454   -0.74188276948473
H         5.77152398127393   -0.84076603260180   -0.81193607203639
H         5.11529650452192   -4.47784077817505    2.73183309227402
H         3.71619901292737   -0.86224058132623    3.91038631526286
H         2.06871616016247   -1.73257445768934    1.88787483526611
H         1.78024660174325   -1.68174267233382    4.65176018394056
H         2.09221997242773   -3.42924306695830    4.48605942779112
H         0.08658494559661   -2.05020741738156    3.09087543395062
H         2.94565084518847   -3.69731434771054    1.08536709477308
H         1.27333049608202   -5.06688873675564    2.38245440557927
H         2.58520235995032   -5.19666279782695    3.63237011805686
H         2.74088292582608   -5.79325014361819    2.00719260397403
H         6.85924000751158   -1.48591289694023    2.42701619723793
