37
 energy: -56.178296732039 gnorm: 0.131173653997 xtb: 6.4.1 (79825abcba525fcdf90b791dcacef51065a7a4e7)
C         3.10410570694744    1.86222878443737    2.53068445288090
C         3.93364677505932    1.39759841347801    1.34790404329581
O         3.48346297990291    0.16591280839596    0.77974568354581
C         4.46461637477547   -0.87403346963522    0.61719001150311
C         5.55380379017915   -0.46147463437228   -0.38203074255888
C         4.92653804446737   -1.46057365303238    1.96965302003633
O         5.17778674301178   -2.85576133412712    1.70829531572074
C         4.48786075241997   -3.54589993331057    2.76936162431858
O         4.43027648680256   -2.62524370334728    3.87570250164202
C         3.85286019183405   -1.57871385480255    3.06477182863230
C         2.56666090134030   -2.21320824959173    2.47999626286337
C         1.41526527643541   -2.06072669378255    3.47749482900209
O         0.10570583459698   -1.75727421393448    3.01509388705311
C         3.03543557767411   -3.68752250660052    2.30370459854745
C         2.30010733853633   -4.87272582240596    2.91963350195005
C         6.29750344342062   -0.90775225374382    2.39312278969137
O         6.41121681858787    0.12754473948567    3.04627110032558
H         2.08830754555413    1.45525937573976    2.50859680526711
H         2.93600071022597    2.94436952999337    2.54447852357185
H         3.60785460128099    1.53618573504878    3.44562242955102
H         4.94543448323237    1.24194006907144    1.73102341047327
H         3.82075738504524    2.20740537205187    0.61966456576670
H         3.93291280878002   -1.68379878505586    0.10393889503888
H         5.15715112426735    0.09036798911745   -1.23998233801111
H         6.13249331154162   -1.34564358657526   -0.66804426852484
H         6.24151752582109    0.24914026844279    0.08485038579283
H         5.08313376195017   -4.41296559403894    3.06771712404718
H         3.75167890544468   -0.65053323519195    3.62989314294157
H         2.26880084642541   -1.76401610427983    1.52703806618040
H         1.65305139125184   -1.32354866281852    4.25288718831720
H         1.22822688641603   -3.05893213950074    3.88381146088198
H         0.18703394383884   -0.94890841230370    2.48139329482825
H         3.08543343360012   -3.94477220157052    1.23829097148082
H         1.24119085731400   -4.63999357285455    2.77253496138407
H         2.31385649873059   -4.93719067985290    4.01410551860859
H         2.47483796994053   -5.87612341881468    2.51986594801120
H         7.11008249610911   -1.62934002408734    2.21327166486992
