37
 energy: -56.177833396079 gnorm: 0.128525781898 xtb: 6.4.1 (79825abcba525fcdf90b791dcacef51065a7a4e7)
C         3.46416119486239    2.89766884115376    0.79613307152301
C         4.13227104842115    1.81637591192035    1.62524348319976
O         3.57459490900668    0.50050507917891    1.62549497952804
C         4.20263886348561   -0.61643291252664    0.97083102079913
C         5.16143402076898   -0.36221318103953   -0.20009182135638
C         4.80697884167979   -1.48589574092472    2.09571536059774
O         5.22176399516153   -2.78414782829378    1.62616538635879
C         4.50357307908009   -3.67041094244372    2.50757922723226
O         4.55106569144583   -2.95103570202452    3.75463884387146
C         3.82957118115587   -1.81141349789867    3.23796703248161
C         2.54938076165339   -2.47499450242553    2.67261144190595
C         1.50677305153222   -2.33011771263369    3.78434241831351
O         0.29213844983609   -2.88247398911987    3.29402690877082
C         3.02643175068829   -3.86203087691778    2.15013330165334
C         2.43964505177662   -5.10021448427515    2.81898728123098
C         6.03139823847454   -0.67709855359678    2.55520257453017
O         6.15626088037488    0.02475759518852    3.55679159347223
H         2.54577916244310    3.20846586441846    1.30400856685929
H         3.16522306210353    2.55196567913814   -0.19915757598441
H         4.06844808668742    3.79684424833554    0.64283775126965
H         4.17619573446455    2.01017809656360    2.70006238391631
H         5.19074447385625    1.73140647131130    1.35826359867785
H         3.40836251161786   -1.20433812193180    0.49612291096484
H         5.93447913153113    0.40187819944605   -0.07159990459184
H         4.51538395511308   -0.05946594028809   -1.03039505469337
H         5.57159272522933   -1.35378755868483   -0.41092778750288
H         5.14543375963989   -4.54913063961591    2.61262862148998
H         3.62597956947402   -1.02677240836345    3.96872541874765
H         2.24014917364821   -1.92799227595614    1.77606924706732
H         1.28858113688242   -1.34140807109472    4.20392855076465
H         1.77385222239602   -2.94291303055990    4.65016069336771
H        -0.05767799832646   -2.38691966647083    2.53444793475499
H         2.94501638265421   -3.88666769199230    1.05626496326616
H         1.34760730614331   -5.09105378689261    2.75208411648994
H         2.72950353452464   -5.24043553470716    3.86709694452977
H         2.83672856733528   -5.99075557777993    2.32258737252506
H         6.91210552566498   -0.78010179212836    1.90170043257382
