37
 energy: -56.180100188826 gnorm: 0.125226022023 xtb: 6.4.1 (79825abcba525fcdf90b791dcacef51065a7a4e7)
C         2.66631481975162    2.26262735591290    1.82489547655074
C         3.30609401368882    1.25634675035536    0.88624154847542
O         4.10441062687309    0.40005425997233    1.70598088002654
C         4.76385497457409   -0.65559804941082    0.98396566106968
C         5.97485142804574   -0.11616089583744    0.21100298095974
C         5.10385035106075   -1.70544318781753    2.06506951982389
O         5.13505113577998   -3.06665706269772    1.59167149504447
C         4.28082668753212   -3.81211531005376    2.48203291277976
O         4.42488122796250   -3.09339836057945    3.72203622364330
C         4.05872507304866   -1.80163789682039    3.18956327508514
C         2.68966088994266   -2.06496890320599    2.51489723461555
C         1.46864765155187   -1.86863425940705    3.41741885573684
O         0.29515420709910   -1.78495594534972    2.61944952783216
C         2.82794552085143   -3.55146967832522    2.07260346285655
C         2.06926270938461   -4.69761743978951    2.73254939332766
C         6.39351501921182   -1.26890815975090    2.77969283769464
O         6.66398727567951   -0.32018445306206    3.51327404417177
H         2.23800607605389    3.11400482129452    1.28668928748256
H         3.37284047389405    2.73979447736734    2.51236271204381
H         1.94228209125665    1.76365254299585    2.47603237896254
H         4.05804187611468    1.65443919090302    0.20007745569582
H         2.56883669216631    0.69245680703160    0.30542846348263
H         3.98077435020334   -1.07059978504152    0.33866452998039
H         5.69093420792927    0.17151693676327   -0.80613862307969
H         6.66010962942836   -0.96779580819413    0.15117639698602
H         6.36935681880116    0.64608579617293    0.88868077720340
H         4.63403571671470   -4.84639751694814    2.50796579548724
H         4.08481671720365   -1.05000026922347    3.98043565379194
H         2.54129383769294   -1.44337788640872    1.62594540885496
H         1.58260683782691   -0.91995187524310    3.95428199907612
H         1.32632070390123   -2.65265105071950    4.16678617650027
H        -0.36397446734130   -1.22997822496005    3.06939949506312
H         2.80537567573163   -3.66365083502379    0.98141632299241
H         1.01822552519647   -4.41309013770638    2.62544456081193
H         2.25775238899549   -4.87484674758587    3.79804231415777
H         2.22328910129977   -5.61934105421564    2.16346848751032
H         7.21430464445884   -1.97891536787154    2.59124069240597
