37
 energy: -56.172819989921 gnorm: 0.127438140874 xtb: 6.4.1 (79825abcba525fcdf90b791dcacef51065a7a4e7)
C         2.17614369574886    1.78114933310035    1.45268522259435
C         3.34584151850883    1.16190656960256    0.71016608433028
O         4.12392151105349    0.39175410316856    1.62884748204378
C         4.85564490283765   -0.70212705323931    1.04697164400033
C         6.08717115483303   -0.16540104194917    0.30518703272472
C         5.21504215220306   -1.69428170427148    2.17525350172261
O         5.28658223454062   -3.05991777616186    1.71929021532411
C         4.22413399278924   -3.75672431903399    2.40033003394795
O         4.35250890614231   -3.21113416203421    3.72726832800738
C         4.16202551814602   -1.84914309771352    3.28574904704493
C         2.71264198691394   -2.00702075441824    2.76304814813762
C         1.72218371232952   -2.00713660611798    3.93050619373602
O         0.47163065091741   -1.47412446906766    3.51474294996105
C         2.87470845184281   -3.26836453196855    1.86461767951066
C         1.71737149685057   -4.25934370482121    1.80704701009199
C         6.51400292622148   -1.28058865240927    2.88662065730730
O         6.69680444564966   -0.24238149032745    3.51914164004225
H         1.30315121501888    1.78640655692210    0.79252284838670
H         2.49006392992715    2.73627246619799    1.88704918120221
H         1.80830509888892    1.25285305165032    2.33743169844799
H         4.01973489999426    1.88932065365981    0.25031741438514
H         3.00536710893349    0.54266300540732   -0.12618231692118
H         4.19200156448120   -1.11348949521704    0.27741742133244
H         5.85919265152503    0.23370212139513   -0.68813417545079
H         6.64496825651515   -1.05934815294675    0.00826785659797
H         6.75593635211848    0.45227542219343    0.91110006379136
H         4.37695572253240   -4.83855164679655    2.36206820225288
H         4.32985344273921   -1.16355122890966    4.11816516014433
H         2.35725253911278   -1.17306488339346    2.14917563245338
H         2.15401676457455   -1.49187182048296    4.79608658322533
H         1.57303954699783   -3.04405584277929    4.24522064907803
H        -0.17403223821875   -1.61464226752924    4.22768055934581
H         2.85071573882772   -2.81333087502581    0.86654348010064
H         0.74734037875947   -3.75878419999560    1.73230609567641
H         1.59284250991638   -4.71934813499400    2.79451964726031
H         1.79329623756559   -5.04591498158334    1.05028239179317
H         7.28332375711668   -2.01294600453480    2.59487038608461
