37
 energy: -56.176224643347 gnorm: 0.119488582778 xtb: 6.4.1 (79825abcba525fcdf90b791dcacef51065a7a4e7)
C         3.31984867507734    2.74049675542458    1.20679365323277
C         3.89848924026874    1.42738169038021    1.70064907999419
O         3.40320183931025    0.23918455856308    1.07984575563930
C         4.37043322206370   -0.72421838910891    0.62499104310551
C         5.52012980494461   -0.26856161857106   -0.28360722392052
C         4.88522866091882   -1.49954719908876    1.85803933898058
O         5.17052137367063   -2.87848197679340    1.54960886687875
C         4.39263355949775   -3.59294325095152    2.53072379597592
O         4.50498404961495   -2.74633426841529    3.69069990646634
C         3.85984081075415   -1.65819483402672    2.99357320401499
C         2.47012298352933   -2.18362914743292    2.55601478807586
C         1.65774199494326   -2.19951064349922    3.85360903029295
O         0.47557530101119   -2.98864833716176    3.82936890476382
C         2.92744836500486   -3.59514724844950    2.08389072222673
C         2.19986153462453   -4.75723811141756    2.75093282799208
C         6.14977779802404   -0.93750046178050    2.52848934920215
O         6.26256890227844   -0.24098571188894    3.53522599505106
H         3.24617792069175    2.81471953096542    0.11728850533595
H         3.86997245979070    3.61511526710284    1.56995262577430
H         2.29985768837024    2.86378815253833    1.58308627587576
H         3.83270038333335    1.31879133018191    2.78628451386350
H         4.96753239576108    1.50828292428589    1.47824003217690
H         3.70549949946269   -1.39024447448591    0.06273873832416
H         5.14369452203576    0.31238479253058   -1.13139393335636
H         6.02901475554144   -1.20969411245031   -0.51543858211540
H         6.20657971541583    0.33453454245694    0.31719495164735
H         4.86219572075869   -4.54590213619889    2.78869580847045
H         3.93488569458550   -0.72077749045526    3.54741074407516
H         1.97270690315280   -1.63131550336422    1.75217997738219
H         1.34464035429247   -1.23175546625530    4.26180540082055
H         2.27256894734368   -2.72880541578444    4.58731574323065
H        -0.33633505642391   -2.45989768510667    3.75107348979733
H         2.78203455476199   -3.63655220270865    0.99718752362997
H         1.22956596796003   -4.99434084122243    2.30437353473418
H         2.00051551182332   -4.52910824991212    3.80470305171126
H         2.81797709744881   -5.65980506143805    2.77232632669027
H         7.10570450468245   -1.30466042686482    2.12263500859031
