37
 energy: -56.174146601933 gnorm: 0.129434431591 xtb: 6.4.1 (79825abcba525fcdf90b791dcacef51065a7a4e7)
C         2.90767025789569    2.10250651024950    1.11267410514592
C         3.40171409108326    1.30278050911880    2.30403815622564
O         4.75863901620053    0.98045576056316    1.99197988780705
C         4.92930220677759   -0.21945255386268    1.21630671049192
C         6.13963763532519    0.03633496048321    0.30821131668157
C         4.99155762431432   -1.48742483279166    2.09660674771232
O         5.03006176448474   -2.73466575038392    1.37487955393411
C         4.34698181436890   -3.70878547155093    2.18890871771377
O         4.39796217050397   -3.10424645604764    3.49537249218012
C         3.83349083421144   -1.85521442306639    3.03981345822761
C         2.49106982585137   -2.21760164392661    2.35758492988020
C         1.25490247073953   -2.04916676851895    3.24498900963059
O         0.09868243283335   -2.21992357633870    2.43576632378155
C         2.86119528428920   -3.63280942335708    1.82408216825849
C         2.13519729776052   -4.82744293937685    2.43281914137802
C         6.23674579325868   -1.40409060176854    2.99496436802511
O         6.18296511528534   -0.69155767537234    3.99535323948645
H         3.49200429881222    3.01658343517543    0.96784669552673
H         1.86780779235987    2.44501889111154    1.14182008177107
H         3.00676391701508    1.48359587264564    0.21584157066195
H         2.74165193903625    0.44835395219905    2.47432488348309
H         3.41965952953699    1.85712535534679    3.24809526886530
H         4.02174450894212   -0.32099673070568    0.60977297252594
H         5.97334205797668    0.80119695210659   -0.45682236003165
H         6.53374803274129   -0.91081280361935   -0.07392503615035
H         6.93512122711950    0.43387902227914    0.94465952986490
H         4.87681149156798   -4.66469841666840    2.21498197578739
H         3.93821396385723   -1.20419212313069    3.90948130958938
H         2.39267231316200   -1.43981262930512    1.59339530930915
H         1.21852728058141   -1.08887555578990    3.77198490130992
H         1.36371849199970   -2.85166312298621    3.98027764806471
H        -0.66950054416057   -1.71419366895439    2.75046941318031
H         2.70122033393693   -3.58092436614155    0.73987767124654
H         2.53179599855336   -4.94792264218598    3.44539038447563
H         2.46290047997217   -5.76650773153499    1.97131972287414
H         1.05594328630962   -4.69774453189210    2.30815659756853
H         7.18420615724244   -1.81666508708050    2.61362289472635
