37
 energy: -56.177179342185 gnorm: 0.118145026060 xtb: 6.4.1 (79825abcba525fcdf90b791dcacef51065a7a4e7)
C         2.97043390750705    1.90669610401518    0.76756791920200
C         3.38627895929572    1.39317636873978    2.13371565542690
O         4.66562094682694    0.76810868624838    2.01086097998555
C         4.77124923916400   -0.48517359244911    1.31178960335742
C         5.82257588303312   -0.37039826682558    0.19980262314093
C         5.11355635188071   -1.55844384824434    2.36889602796644
O         5.40507980251731   -2.81851946584689    1.73233818419819
C         4.37820265172403   -3.70286281444084    2.22387761419225
O         4.31732488320317   -3.25261419694962    3.59080264883716
C         3.92406358017009   -1.89721426494835    3.28342759078365
C         2.60934190674360   -2.08958563581054    2.48759194825365
C         1.36969191388650   -2.23430094854220    3.37432260535670
O         0.26118888590078   -2.09788235587475    2.49485971399863
C         2.98128978840736   -3.37326482857630    1.68868427897764
C         2.03462981120058   -4.54067962324978    1.94512239715696
C         6.29152349773872   -1.03515829252315    3.20737671995189
O         6.18638740512495   -0.19560393833537    4.09926694991033
H         3.75661137183858    2.46514192543976    0.24986034994959
H         2.23674439953179    2.71143981810373    0.88403860480320
H         2.56569721793561    1.12749930093168    0.11471336144092
H         2.64113787056097    0.70785179145732    2.54580704702892
H         3.48602963495727    2.26792805073374    2.78465602091722
H         3.77362603652321   -0.71955113205345    0.92234081528701
H         5.58202295229701    0.53374760025855   -0.36817545762271
H         5.67882411651985   -1.24587039022915   -0.44154286145462
H         6.89446429267029   -0.40705363770590    0.41337537685453
H         4.76454340802251   -4.72435615175984    2.17426924534610
H         3.88223646917157   -1.21603468052673    4.13511055535815
H         2.27971295169418   -1.22910220550475    1.89637580528011
H         1.35156262448640   -1.33550603715478    4.00125643841054
H         1.27292878174646   -3.09317174879274    4.04474673197827
H        -0.52839037180396   -1.95888678474785    3.04454205844510
H         3.05689012619050   -2.96637300492911    0.67256075727706
H         2.15629605451394   -4.84555873107229    2.98884287962473
H         2.12393183083669   -5.41344022811186    1.28745392057840
H         0.99987466119609   -4.20822374430526    1.81900144340073
H         7.23404887961310   -1.58281490649065    3.04914215534985
