37
 energy: -56.179760829774 gnorm: 0.122728557874 xtb: 6.4.1 (79825abcba525fcdf90b791dcacef51065a7a4e7)
C         2.74394397747667    1.90510359544831    1.18051569317277
C         3.76501322034626    1.60769752237746    2.26308508436908
O         4.93456616788168    0.92014030499967    1.81371911729214
C         4.75546211287222   -0.37035809648933    1.20289164399911
C         5.86709658054330   -0.51892600262240    0.15543160393332
C         4.99653540794658   -1.45762675246802    2.27353991850491
O         5.29035111570318   -2.73736941893670    1.67863369120296
C         4.32142759851485   -3.61375261520205    2.28796985792264
O         4.21203661239143   -3.12723203633795    3.63935629594387
C         3.85081778213696   -1.78514371919009    3.24621159000489
C         2.56815489009289   -2.10040671752149    2.43736096815089
C         1.45593367476299   -2.32461939983828    3.46529993180349
O         0.18830128093324   -2.54583420704769    2.86113431923983
C         2.98881947408587   -3.33445534184688    1.58612877945097
C         2.01391612759142   -4.50674052989820    1.57644330281784
C         6.18186049403456   -0.97021961274677    3.12320043566327
O         5.92547029181472   -0.44638846437520    4.20543807425910
H         3.27227312411656    2.27250191531243    0.29516567482786
H         1.96194732984846    2.59731060497485    1.51037756931667
H         2.25551892074362    0.96102729706558    0.92101728172492
H         3.40176809704240    1.00420046150249    3.09888925500489
H         4.22950882090387    2.54199511132283    2.59504278528281
H         3.85405306494700   -0.59809778988857    0.62198580243315
H         5.57753516268201   -0.26293565427339   -0.86856433560768
H         6.14271723029324   -1.57507450975748    0.07162451644868
H         6.79573432329191    0.01572151827258    0.37380211279346
H         4.64005265050746   -4.65849917005577    2.33435432255657
H         4.01281928420256   -1.19851552159145    4.15215963939441
H         2.25233846327662   -1.29688915979613    1.76412771188813
H         1.37277675607289   -1.51138011840396    4.19532307071065
H         1.63139063200517   -3.28560305247181    3.95745432057369
H        -0.33485433996091   -1.73114118365288    2.77459343497460
H         3.21748413287904   -3.11314189647509    0.53612106441869
H         2.11764488673585   -5.14958954711232    2.45569973321569
H         2.23241291048538   -5.20186989606205    0.75713379710033
H         0.97961372163423   -4.15144982374660    1.54269913549239
H         7.16747613247257   -0.98494046409773    2.63160593353459
