37
 energy: -56.181956043506 gnorm: 0.112383308868 xtb: 6.4.1 (79825abcba525fcdf90b791dcacef51065a7a4e7)
C         2.76786397718229    2.13159781711501    2.13037037768882
C         4.00449409471950    1.56828382628899    1.45478725192899
O         3.69123668739774    0.35123081813178    0.77422089334512
C         4.65008753494361   -0.70857349176654    0.60690541769019
C         5.97456513184762   -0.18776684948073    0.03288826705738
C         4.92700868365433   -1.57882592482203    1.85291207853203
O         5.04671253864050   -2.97889574497283    1.53126334049412
C         4.38485371970240   -3.68511894393782    2.59959969454648
O         4.46087420311095   -2.75408174460371    3.69609620467094
C         3.88440738393557   -1.63856606934357    2.98226593427069
C         2.56114294969274   -2.21674912056947    2.42232858315314
C         1.48873387088375   -1.84041402012879    3.44813391325282
O         0.18538967530993   -2.06981744460471    2.92898850428240
C         2.90708537644655   -3.71817758700882    2.19767910739843
C         2.06981138920608   -4.71639558679899    2.98971195725918
C         6.23592025748887   -1.24853122758056    2.58921379429781
O         6.29580556017767   -0.36023514249906    3.43698566354432
H         2.94681570899222    2.50910274731036    3.14201466933190
H         2.01748215070466    1.34012995750717    2.23028985138902
H         2.39011907446086    2.96375875811528    1.52870977902083
H         4.81804775851217    1.42261338910655    2.17007383288258
H         4.33030833141127    2.30302743119038    0.71124103305297
H         4.22981945809498   -1.38484876546225   -0.14667387807742
H         5.85313578589227    0.33299193050368   -0.92210375912591
H         6.46355631599386   -1.05757336054213   -0.41740530404976
H         6.62620388967254    0.22107411591673    0.81013835856554
H         4.87702241689168   -4.62868693724304    2.84983605185135
H         3.84792806963881   -0.75220349337304    3.61799360630862
H         2.38462118094960   -1.75875659288449    1.44370381313090
H         1.63418720351829   -0.76722588801985    3.61641214726622
H         1.64419861501631   -2.41881756582724    4.36343207720011
H        -0.29573806283349   -2.50368935990288    3.65367955194611
H         2.76688513467859   -3.98042075179053    1.14157503886161
H         1.02866250552274   -4.41507096199950    2.84031695359658
H         2.25882040654880   -4.68270728884321    4.06922779508498
H         2.24670478128933   -5.71878519655938    2.58836992198725
H         7.15221785200975   -1.73944168975634    2.22489840794432
