37
 energy: -56.202210420486 gnorm: 0.093185376852 xtb: 6.4.1 (79825abcba525fcdf90b791dcacef51065a7a4e7)
C         3.57955000000000    3.11464000000000    1.48787000000000
C         3.78877000000000    1.81214000000000    0.73773000000000
O         4.21817000000000    0.80953000000000    1.66126000000000
C         4.48845000000000   -0.47418000000000    1.06998000000000
C         5.61372000000000   -0.41126000000000    0.02845000000000
C         4.81841000000000   -1.47999000000000    2.19516000000000
O         5.03444000000000   -2.81267000000000    1.68991000000000
C         4.35620000000000   -3.65325000000000    2.64467000000000
O         4.23979000000000   -2.88907000000000    3.86015000000000
C         3.70085000000000   -1.70789000000000    3.22722000000000
C         2.40914000000000   -2.31402000000000    2.62477000000000
C         1.27290000000000   -2.28326000000000    3.65043000000000
O         0.07896000000000   -2.83017000000000    3.10615000000000
C         2.89739000000000   -3.72500000000000    2.18298000000000
C         2.19157000000000   -4.93909000000000    2.77677000000000
C         6.06839000000000   -0.98517000000000    2.94161000000000
O         7.16324000000000   -1.54422000000000    2.92978000000000
H         3.35138000000000    3.92857000000000    0.79259000000000
H         4.47628000000000    3.38127000000000    2.05731000000000
H         2.75748000000000    3.02436000000000    2.20427000000000
H         4.55281000000000    1.98354000000000   -0.02489000000000
H         2.85731000000000    1.49825000000000    0.25532000000000
H         3.58771000000000   -0.80790000000000    0.54163000000000
H         6.51087000000000    0.06315000000000    0.43833000000000
H         5.31313000000000    0.18356000000000   -0.84004000000000
H         5.87070000000000   -1.40656000000000   -0.34470000000000
H         4.87156000000000   -4.60754000000000    2.78216000000000
H         3.55009000000000   -0.89862000000000    3.94379000000000
H         2.07098000000000   -1.75363000000000    1.74714000000000
H         1.05649000000000   -1.24971000000000    3.94394000000000
H         1.52193000000000   -2.83342000000000    4.56246000000000
H        -0.12003000000000   -2.36910000000000    2.27385000000000
H         2.85190000000000   -3.80256000000000    1.08950000000000
H         2.19701000000000   -4.93440000000000    3.87087000000000
H         2.69106000000000   -5.86031000000000    2.45416000000000
H         1.15602000000000   -5.00253000000000    2.42926000000000
H         5.94280000000000   -0.04132000000000    3.49541000000000
