37
 energy: -56.187146887100 gnorm: 0.125310731838 xtb: 6.4.1 (79825abcba525fcdf90b791dcacef51065a7a4e7)
C         3.64483258257398    2.98627189171856    1.95160902746642
C         3.86963669413979    1.84513165780168    0.97680066485215
O         4.28241099790846    0.71271708888286    1.74476773531527
C         4.52558866009138   -0.50602063619032    1.01942811016935
C         5.67475995181979   -0.46551205611217    0.00318969744674
C         4.82524617734797   -1.54100947309335    2.12647853798249
O         5.06318350696070   -2.84344636461340    1.55636771078779
C         4.36076350904879   -3.70964094574548    2.46985769438325
O         4.29725013938584   -3.06951591254176    3.75870212348871
C         3.75909043733021   -1.85596598627502    3.18955930232229
C         2.41956774600873   -2.33914642621208    2.58040433457326
C         1.24445441715697   -2.21100468954656    3.55336590228318
O         0.06921427909768   -2.37778278378845    2.77116410586268
C         2.89928255963128   -3.70668057024723    2.01105822158706
C         2.13103610604487   -4.91984756802534    2.52370442376161
C         6.15758203022555   -1.10343290308616    2.75726547515526
O         6.31902362706968   -0.42792313394109    3.77166009998971
H         2.81083999410273    2.80927558267861    2.63796646935983
H         3.42259113498557    3.84878261175202    1.31430050107094
H         4.54007104695041    3.19891497905571    2.54364748031345
H         4.68472400547684    2.16403164639659    0.32207949639930
H         2.97928172282923    1.58354561463910    0.39567690064712
H         3.62036256737728   -0.77342766160084    0.46183109062909
H         5.50716479902886    0.00662822129866   -0.96991870927743
H         5.86202019612536   -1.52334998590534   -0.20741076126547
H         6.60653913341508   -0.08041985488771    0.42673810621275
H         4.82023706530756   -4.70063142219219    2.51447536740569
H         3.73172045896928   -1.15888238126282    4.02887111005525
H         2.11286569970140   -1.74095358924737    1.71627316203615
H         1.07127301337093   -1.18854278475778    3.90803030613049
H         1.28592191866743   -2.97728225570872    4.33284636807038
H         0.00872565985587   -3.29876183099019    2.46613202044854
H         2.91658082979085   -3.68238822012739    0.91429296850291
H         1.89947013196993   -4.84268351754377    3.59025460717635
H         2.73646748951469   -5.83193150680324    2.46230836843144
H         1.22520933621210   -5.25465087469643    2.00937356953415
H         7.00805319850531   -1.43420062456396    2.14032824568851
