37
 energy: -56.185197528425 gnorm: 0.121343954765 xtb: 6.4.1 (79825abcba525fcdf90b791dcacef51065a7a4e7)
C         2.77301733878988    2.34511877120209    1.86178924778480
C         3.49972870589484    1.36352133497428    0.96104160296185
O         4.28457231404859    0.37891389016622    1.63712405923993
C         4.75369867703480   -0.78516156350729    0.93326086751265
C         5.97314137834331   -0.38047218741717    0.09411718494248
C         5.07945505200714   -1.70349865297333    2.13205064301892
O         5.20635604366939   -3.07280235698036    1.69974764883230
C         4.22957860684025   -3.76703427443576    2.50105828420704
O         4.24322394411713   -3.05928797969898    3.75557929049328
C         3.93977365739748   -1.77776177574862    3.16240869295190
C         2.58518219483545   -2.06643276339807    2.46915173506266
C         1.52257300437630   -1.80299689525249    3.53939895908914
O         0.18233878882153   -1.90476609838473    3.07651750917613
C         2.81859491551482   -3.51886543824588    1.95886870915364
C         1.84911452685676   -4.55555398924366    2.51579557876046
C         6.40314281269107   -1.38931897052865    2.84872772623708
O         6.69218097569062   -0.41578438645971    3.54159180126204
H         2.10691401331923    1.82649637926197    2.55842045698378
H         2.25544918275038    3.22574147420468    1.46668797519396
H         3.48889478166530    2.84633038127322    2.52018497007552
H         4.11709885143431    2.01821104016868    0.34059029358179
H         2.74391715672559    0.87683212939859    0.33594434762382
H         3.98825573529903   -1.27263698045348    0.31818359897611
H         6.66678114182383    0.22757177890659    0.68326145427385
H         5.66884185346503    0.29777463962139   -0.70951399340676
H         6.54674294690453   -1.21193898026766   -0.32486480934731
H         4.52199070326947   -4.80014291073798    2.70685069993356
H         3.96021794310440   -0.95897538704780    3.88371991236448
H         2.39256816409673   -1.39463781089895    1.62640925973188
H         1.68683198047228   -0.73578963317585    3.72726764228355
H         1.60823499360359   -2.40075550882458    4.45145012273865
H         0.18518889810271   -1.53114532270633    2.17912949691330
H         2.94842916172005   -3.58579882468994    0.87146521536479
H         1.83751410502496   -4.52891476044925    3.60953328451893
H         2.07457390026961   -5.57890591391620    2.19309965867371
H         0.84782836130619   -4.26312805652764    2.18554610531131
H         7.14832110304455   -2.12585315239017    2.50880604988078
