37
 energy: -56.175145184637 gnorm: 0.124008813256 xtb: 6.4.1 (79825abcba525fcdf90b791dcacef51065a7a4e7)
C         2.98958001456024    2.63540082510863    1.53270257555648
C         3.88540292922229    1.66348107891276    0.78714065577955
O         3.96235840278343    0.43438669768517    1.51234659517506
C         4.67390527053916   -0.68015742024876    0.94483707884944
C         5.96320187170270   -0.35833100876026    0.17729674594292
C         4.99238060862978   -1.57509967254490    2.16311824665590
O         5.25708107687600   -2.90269956249484    1.66774507350538
C         4.35199533945940   -3.73107641328056    2.42455578718830
O         4.32172545047977   -3.05467810499873    3.69596564686197
C         3.83333296186034   -1.81143278429306    3.14636879207855
C         2.46303933273407   -2.24146930816500    2.56652558667944
C         1.48614987130328   -2.34650998656429    3.74067179204820
O         0.15187049409843   -1.98329281272394    3.41110269342564
C         2.92278525850717   -3.57013135104788    1.89740541320533
C         2.20243537357608   -4.88079534713480    2.19411881973456
C         6.16313396811468   -1.09793651188317    3.03841028038155
O         5.90614124973911   -0.27415171142564    3.91402815148568
H         3.03888730405355    3.58478885700594    0.99031062741595
H         3.44717959379550    2.74644682271564    2.52151477820557
H         2.00729392414862    2.15394061403470    1.55480737510720
H         4.81707945963614    2.22022938575113    0.65777876948472
H         3.34024835308037    1.41755143949675   -0.13002299524918
H         4.08630296448139   -1.23195525778781    0.20180416481952
H         5.57457277421894    0.15203202222631   -0.70951866142013
H         6.36859546055782   -1.32004353446960   -0.15316519439611
H         6.65759849583334    0.26148302831150    0.75135736281508
H         4.85503555155452   -4.70148669680043    2.40398308010549
H         3.72060558607371   -1.03579283048147    3.90583847542477
H         2.02361306881568   -1.52008292862255    1.87001302289705
H         1.82420258678240   -1.83824308209204    4.65094213846876
H         1.46851821186008   -3.39326352981406    4.05766834037414
H         0.16203668335243   -1.02092012079089    3.27456954001402
H         2.99598746815096   -3.53804948837969    0.80314970103404
H         1.11636883741866   -4.75430399563152    2.15454857267498
H         2.40031092705318   -5.32933360065065    3.17486978033499
H         2.32040184066828   -5.57062163571732    1.35306279978413
H         7.10521857860515   -1.65847768268133    2.93075237716984
