37
 energy: -56.177218446274 gnorm: 0.127168387557 xtb: 6.4.1 (79825abcba525fcdf90b791dcacef51065a7a4e7)
C         3.06037338133423    2.38736460584485    1.97383959376882
C         3.49544469487465    1.44916673820540    0.86321500337164
O         4.48093626425285    0.62292388719934    1.48663133388084
C         4.79820565644028   -0.68220202513760    0.97033578793066
C         6.07030375069437   -0.57044726515886    0.11930497187151
C         4.99214274360708   -1.54642303786731    2.23606389880800
O         5.29582621585367   -2.92289346915852    1.93425618114009
C         4.25926922730826   -3.67037516516276    2.60131808356117
O         4.09325393716469   -2.97499306925193    3.85183663057498
C         3.81681648968473   -1.70837426844286    3.21504624171214
C         2.51345083971467   -2.07608430002155    2.46346023979309
C         1.39807910903556   -2.19389704655058    3.50558880518569
O         0.11240183125139   -2.62391227065794    3.07784494533591
C         2.90684556035326   -3.47672122363255    1.90858388537848
C         1.97233471273167   -4.65270898214846    2.17035705343726
C         6.27019422968159   -0.99498189228354    2.88950199321603
O         6.31876531295372   -0.00192761937040    3.61259076395043
H         2.27359713641555    2.99517693969454    1.51612223853808
H         3.83368815372477    2.98146749566544    2.47234152908675
H         2.58437810480337    1.92335294165296    2.84291967793084
H         3.96237196195478    1.99854536341512    0.04170031103923
H         2.65713899369886    0.91696314917332    0.40183993743060
H         3.98917525323017   -1.01850422766208    0.31137761419064
H         5.95441123457960    0.12256820015851   -0.71988693006721
H         6.17932850314824   -1.53350488716997   -0.38968781690301
H         7.00231694989979   -0.35858799084734    0.65068877768302
H         4.64962722696089   -4.68006894013614    2.75398741825109
H         3.88204686466316   -0.85504303833085    3.89231267435398
H         2.40335506048455   -1.42281802143845    1.59182637186713
H         1.36183600195858   -1.19348377438847    3.95175773865432
H         1.77329852679101   -2.94108259920383    4.21086521266975
H        -0.36785970638299   -1.82120404855485    2.81343197697323
H         3.12098533088087   -3.38645108642155    0.83630647638866
H         0.97203466557634   -4.44280410065258    1.77991352744677
H         1.83689435926778   -4.93519456156597    3.22110514765304
H         2.44486777349066   -5.40379384224319    1.53025107084827
H         7.13129286783506   -1.61600048549561    2.59596307083209
