37
 energy: -56.175668833472 gnorm: 0.127166143141 xtb: 6.4.1 (79825abcba525fcdf90b791dcacef51065a7a4e7)
C         4.16026575391898    3.01051442930995    1.76551215624633
C         3.70494265130738    1.60192407330583    1.43153107322295
O         4.87104264392763    0.79739590361839    1.24321199010388
C         4.51643924753230   -0.58720471463867    1.07674189080470
C         5.33638910514734   -1.09887093112493   -0.11525484334662
C         4.85201609152470   -1.41616873366952    2.33641025210539
O         5.31345250509474   -2.72063149116653    1.93213811987099
C         4.39180423768144   -3.68246235049119    2.48313434098017
O         4.18158169389623   -3.07479703609338    3.77211199037962
C         3.70247563934102   -1.80326139516137    3.28231870596691
C         2.43315404045070   -2.29147339010952    2.54115327929541
C         1.25792945057561   -2.41386133222706    3.51472118830288
O         0.02006363647568   -2.78400084164410    2.92182235565733
C         2.97683808805923   -3.60297172674860    1.90176998761041
C         2.27027903548155   -4.94850887719470    2.02459989605823
C         5.98908797779685   -0.65862559439432    3.04187499206647
O         5.76924000524401    0.35043753417227    3.70883218631192
H         4.77857456261758    3.06387271850744    2.66706913354599
H         3.25945148532461    3.58439523329444    2.00773651614815
H         4.64605010844184    3.51941703885962    0.92753231210958
H         3.24353226671148    1.50699192429883    0.44521839830657
H         3.09508130397698    1.18431601053864    2.23932852202690
H         3.45363875717242   -0.57204925387341    0.80826323494990
H         5.97645224908047   -0.31061717073450   -0.52381301544938
H         4.61927548280171   -1.38539675786027   -0.89120012132340
H         5.88233021405401   -2.00072853840907    0.17543899409958
H         4.86708846458736   -4.65585031925846    2.63074757427946
H         3.56638553306997   -1.02086480948718    4.03095361167551
H         2.11015241453126   -1.47973750103342    1.88132114632981
H         1.12486425674115   -1.46058664909479    4.03890444945092
H         1.36796780515305   -3.15062021578673    4.31570099344654
H        -0.07252096100556   -2.38825985000846    2.03880308919648
H         2.99373047169816   -3.47740706368182    0.81193897171548
H         2.29515740394416   -5.29299144406527    3.06278064251454
H         2.70252663982235   -5.76406198846770    1.43278157135331
H         1.22165991468645   -4.86197017588398    1.72449880413494
H         6.98199231276666   -1.11879851090913    2.91656725255604
