37
 energy: -56.172220773897 gnorm: 0.132020748227 xtb: 6.4.1 (79825abcba525fcdf90b791dcacef51065a7a4e7)
C         2.55039179919747    2.22413152217018    1.59261861107215
C         3.66914035760295    1.52546737535902    0.84211255713248
O         4.04748453787202    0.42084458559195    1.66623813824861
C         4.70146934371894   -0.69568151572982    1.03675586888653
C         5.95650762530090   -0.44618125684382    0.18964037644527
C         5.07350560783965   -1.63429472025449    2.20600839099726
O         5.15003985333767   -2.96891068306588    1.66663366765807
C         4.24910571086257   -3.74426228064437    2.48229193863269
O         4.25701860917163   -3.05079804383214    3.74481271237388
C         3.93403789033862   -1.73894533188747    3.23396169198119
C         2.56916575830087   -2.03885182292506    2.56610366100861
C         1.51134659554806   -1.83233333588249    3.65345577110245
O         0.18769015991516   -1.93885708255442    3.14607987585823
C         2.79194857784660   -3.50045225745688    2.07771556767098
C         1.94979582248541   -4.61620397551702    2.68653389293004
C         6.26893276901908   -0.95703596784643    2.89648553380091
O         7.45020789092718   -1.28721912737959    2.81317023247074
H         2.39013522860294    3.24403497978857    1.22920061830147
H         2.86407360990796    2.34481218595452    2.63498038091669
H         1.59094361904707    1.71066300109214    1.70658258122321
H         4.47925548291794    2.23965073203438    0.67364905758769
H         3.17288163184990    1.18095205260460   -0.07106898566521
H         4.03824330511627   -1.29471146356041    0.40181525348292
H         6.78429724265466   -0.03602681902809    0.77656647211504
H         5.72807081926748    0.11543520796810   -0.72186585161473
H         6.44970268723528   -1.34807266724261   -0.18352475914987
H         4.70700920578819   -4.73698146256819    2.48364070112982
H         3.89782316862295   -0.94324120275536    3.98005983124926
H         2.33605026307757   -1.26906741941127    1.82333004684026
H         1.60594270189088   -0.82257603363636    4.06896600905874
H         1.51504247443991   -2.67226224398872    4.35416715037510
H        -0.06137951997613   -1.29795694387363    2.45897205515447
H         2.70128541447666   -3.51301490593158    0.98436944644671
H         2.34115118744766   -4.81461337193091    3.68882181478146
H         2.15854025090150   -5.39489424552319    1.94337779835028
H         0.87002502813513   -4.44018785521036    2.70281207549363
H         5.89599747601372   -0.06987047293002    3.43237421882622
