37
 energy: -56.184712027339 gnorm: 0.109904130066 xtb: 6.4.1 (79825abcba525fcdf90b791dcacef51065a7a4e7)
C         3.07361249877997    2.31797021461098    2.14779016421599
C         4.17335552399787    1.57991505692466    1.40696013913803
O         3.61514316975026    0.35412862485291    0.92908422694097
C         4.50069844536281   -0.76210433252796    0.72811054547765
C         5.80143626124706   -0.47009674958424   -0.03201369097439
C         4.94652343554863   -1.51156602069150    2.00329855567353
O         5.13673009867824   -2.90124305116133    1.67073038737197
C         4.24037418409789   -3.62667935869453    2.53585413773573
O         4.26135077091966   -2.83159842082008    3.73682052369497
C         3.84636011092749   -1.61774079069408    3.07306208612071
C         2.46026593471837   -2.03906353037037    2.52526258444374
C         1.55069087437775   -2.14295520722510    3.75239160744742
O         0.34521626443661   -2.82324484626779    3.42853832551962
C         2.82135560068183   -3.45417287725456    1.98534520958112
C         1.92160710822988   -4.59588089360827    2.44549561092941
C         6.30336444846600   -1.02883005775700    2.54221664982050
O         6.47814540864844   -0.10898982901135    3.33890910551310
H         3.48642950791923    3.28316784144136    2.45752154341905
H         2.66510633079563    1.80067452107932    3.02243639884026
H         2.28721381645350    2.53417604057168    1.41839954636163
H         4.94976692693554    1.45256120808723    2.16570295693598
H         4.48104268648368    2.19785571790648    0.55705307941001
H         3.99683657635395   -1.53932280107828    0.14167221184333
H         5.55784905484444    0.16541874063580   -0.88917756130698
H         6.28729703657224   -1.37467345443713   -0.41164552759623
H         6.55572975887650    0.07736531309387    0.54002504637206
H         4.47351062589136   -4.69200321804415    2.61267400883807
H         3.78271124741717   -0.80515960732803    3.79885795937397
H         2.03709501750676   -1.38137545087295    1.75910575794405
H         1.45503604893819   -1.11468134833369    4.11942025185104
H         2.07777030909785   -2.74319491585147    4.49964674443907
H         0.03537863884341   -2.39409861952959    2.61322242629984
H         2.90615629325652   -3.31924944805729    0.89980944426337
H         1.81127309590246   -4.45933700043506    3.52544401932439
H         2.36521187520009   -5.58290722228268    2.26883890676388
H         0.95879500892536   -4.59384973278316    1.92574531962974
H         7.07411427600859   -1.69578505005182    2.12456153831974
