37
 energy: -56.184449320878 gnorm: 0.118348027738 xtb: 6.4.1 (79825abcba525fcdf90b791dcacef51065a7a4e7)
C         3.04047274041777    2.30219108516466    2.26558021015667
C         4.22314217556729    1.49365457032834    1.76502954081922
O         3.65590298473665    0.40371015976282    1.03511196029995
C         4.51422658182062   -0.65652108568232    0.57711099652004
C         5.82613777605845   -0.22982817055215   -0.09504843118055
C         4.89688633377750   -1.53292603172248    1.79038880473715
O         5.06337765720294   -2.89858459632658    1.35999397656290
C         4.33994648511023   -3.65460663460346    2.35157295353837
O         4.43346855378487   -2.86995323099455    3.55593445527644
C         3.87521225496093   -1.69465087761276    2.92883228636143
C         2.49044534557538   -2.19882196276523    2.45229655694805
C         1.47024429839941   -1.93784374674999    3.56362281723671
O         0.12277309337077   -2.35112218316050    3.37824147564394
C         2.83018259637888   -3.67539178356924    2.09347751021750
C         2.07377199307502   -4.72327101254011    2.90253562519439
C         6.22860899334516   -1.14849382324523    2.45612964528637
O         6.32500209510900   -0.24364680012229    3.28276954843849
H         3.29111907392373    2.98300001218029    3.08511269162373
H         2.29859019991405    1.58589408333457    2.63437156187425
H         2.52319372560771    2.89654722542081    1.50640847851464
H         4.89261280794674    1.20168490079656    2.57822515991641
H         4.79634977977085    2.18107590800761    1.13435608763700
H         3.86113769548554   -1.37118839502062    0.06273682746312
H         5.64008770934749    0.31091898035911   -1.02828068807637
H         6.38475746630862   -1.16340400294484   -0.21678686167150
H         6.47237839744543    0.35018337171441    0.56967811030910
H         4.78958900776862   -4.64347163655234    2.47460310440595
H         3.91009876957126   -0.89143106626096    3.66689723036452
H         2.30531294472346   -1.56430262191647    1.57952241313404
H         1.30245010272855   -0.85846182120880    3.65299147035586
H         1.80100898134208   -2.44150872294261    4.47653408278075
H        -0.04720537899949   -2.62091928511520    2.45996989693823
H         2.63974695037646   -3.86851625996142    1.03035918577933
H         2.39062135263494   -4.77644083118241    3.94842560037221
H         2.34933717149394   -5.67914569805608    2.44147037112101
H         1.01680107611161   -4.44073210043640    2.89087930884728
H         7.06119175751065   -1.86281753145725    2.35679376700907
