37
 energy: -56.173510130003 gnorm: 0.129968063112 xtb: 6.4.1 (79825abcba525fcdf90b791dcacef51065a7a4e7)
C         3.77576837917699    2.94960266561475    1.87166238634853
C         3.70912564053276    1.78395001697846    0.90222856530898
O         4.22374046346459    0.73527759191418    1.72562190128182
C         4.52675898145906   -0.50831733794208    1.06818278964927
C         5.66079501428457   -0.25360656706147    0.06615432640347
C         4.86502633611292   -1.57733521870763    2.13088385442035
O         4.98931678632917   -2.91169828629314    1.59983799899205
C         4.37907466237489   -3.76272892408319    2.59054599843599
O         4.39438657680339   -3.05063311001127    3.84258398671916
C         3.86191950891077   -1.83730571942632    3.26764188497173
C         2.54764138613496   -2.36797466902412    2.64320779426624
C         1.26869954001072   -2.29403908800278    3.48154386094224
O         0.06575106063493   -2.29137068178636    2.72407975556355
C         2.92238401210152   -3.78479505715944    2.11726188280472
C         1.98514300512032   -4.95227237000487    2.40598161298962
C         6.19655640005042   -1.22517072068342    2.81461804520700
O         6.29563610164696   -0.22094295018411    3.51681689766145
H         3.24717018683820    2.65434220965484    2.78345352905167
H         3.37567582327704    3.82826525621627    1.35459743540056
H         4.78801537760306    3.18803041179704    2.21178993464616
H         4.32024167809757    1.93876335119362    0.00931514628962
H         2.66533124849094    1.52670378272435    0.69442644733721
H         3.64590197010140   -0.84968037331226    0.51192963099604
H         5.40126902929118    0.26198297231595   -0.86376948901536
H         6.23940177946701   -1.13613089047095   -0.22505885500153
H         6.40045612108980    0.37481237096734    0.57003212760209
H         4.88822421199923   -4.72183048720631    2.71727326598486
H         3.81029422074950   -1.14992054983518    4.11378349430263
H         2.28534603350842   -1.82459458808224    1.72966368112716
H         1.19275636303690   -1.27886703767253    3.88758004572539
H         1.27102371153857   -3.03364482482260    4.28744005748668
H        -0.13016719558029   -3.14331186750118    2.29897022144643
H         2.95225963691551   -3.75534963938609    1.02089339357548
H         1.69630975724152   -5.10871744114844    3.44963228406735
H         2.43942946597096   -5.89758618429188    2.08626394600966
H         1.00176044864630   -5.00743531838913    1.92946565022539
H         7.04675849145274   -1.89883456513862    2.62316675466230
