37
 energy: -56.175054725448 gnorm: 0.128843855578 xtb: 6.4.1 (79825abcba525fcdf90b791dcacef51065a7a4e7)
C         2.87492400618345    2.49707462446718    2.17685910836336
C         3.55164004826490    1.64965921120424    1.11528867728020
O         4.39339623382483    0.68724673716887    1.75382415511923
C         4.76591193900341   -0.47000792594546    0.98403958426889
C         6.05179450577325   -0.10171084524579    0.23181660799481
C         4.95498319081332   -1.60328126647102    2.01675481756131
O         5.03099348775360   -2.88114669076238    1.35398429158020
C         4.29805338107839   -3.74040652160829    2.24987613642594
O         4.42040425968460   -3.13956873315388    3.55330936463869
C         3.91133018787428   -1.86018194623047    3.11712604860560
C         2.52894252273350   -2.19769247095127    2.50561549701867
C         1.40978174950498   -2.01335860665350    3.53394717583086
O         0.16986139265432   -2.03826600545446    2.83909388846170
C         2.80815901274640   -3.61226838604178    1.91787060644357
C         2.10072445486260   -4.81736595299233    2.52783708342005
C         6.27834996529818   -1.40929081130938    2.77540647550748
O         6.34667108646355   -0.52267592736833    3.62429962451046
H         3.12212033172451    3.53946269023553    1.95262939071082
H         3.13107530239309    2.24094668358701    3.21042727308858
H         1.79851075356041    2.36830055197025    2.02877039052831
H         4.27450008668610    2.22462844668646    0.53081619676268
H         2.77032692478551    1.10635196205847    0.57378050694933
H         4.02656711974885   -0.84121438170393    0.26471334871155
H         5.72694393599480    0.58177303014675   -0.55892131449678
H         6.60325603330922   -0.87961796793766   -0.30594794833271
H         6.73640058273161    0.34147103251053    0.96038098381393
H         4.70831346354824   -4.74955567624575    2.15782475575683
H         3.85710924891291   -1.21130632358012    3.99299104868906
H         2.30140327793906   -1.56243357004359    1.64346961475828
H         1.52639100393574   -0.96042659343675    3.81491593928464
H         1.41207213095636   -2.73760386077566    4.35367531537528
H         0.01127897387784   -2.99582686439379    2.78585226593345
H         2.81835938579521   -3.68495684316630    0.82315799422947
H         2.00977972618037   -4.86275826986455    3.61722910441426
H         2.55529528075155   -5.76013292370818    2.20108098343086
H         1.05495696148017   -4.80036253149770    2.20653838065261
H         7.01620901882855   -2.22348432661235    2.69812142804196
