37
 energy: -56.181003975306 gnorm: 0.110840872777 xtb: 6.4.1 (79825abcba525fcdf90b791dcacef51065a7a4e7)
C         3.70023001649212    2.89139207434555    1.84492210252634
C         4.60452216891425    1.84206901179876    2.46473342046931
O         5.22877303211659    0.94935413477049    1.53959029598433
C         4.54477022752115   -0.23623813539914    1.09564693031277
C         5.13601074553157   -0.68130032416698   -0.24872296477680
C         4.74142564018519   -1.33692171728596    2.16165793122655
O         5.18928874870161   -2.61472455625854    1.66706627358840
C         4.43540787301792   -3.55085020365062    2.46298288289392
O         4.10248595604470   -2.86683218416501    3.68617391954706
C         3.52693956871451   -1.71894455786384    3.02485462943330
C         2.41592653361362   -2.41650241314084    2.20149732895032
C         1.06659337392342   -2.53736830475150    2.91469949030915
O         0.17117934336278   -3.12776228446365    1.98168682819304
C         3.06505551720252   -3.77870998179404    1.81750118130050
C         2.47471705762630   -5.04745171261630    2.42295789395872
C         5.80736374074642   -0.86778245099797    3.16573391224625
O         5.54464469749957   -0.23098989521017    4.18399087910650
H         4.14970850544794    3.19651269675741    0.89474929625482
H         3.66750894779722    3.75931792486881    2.51208940400411
H         2.69281562744631    2.52342290267043    1.62837313529702
H         4.08484242259981    1.26711363394954    3.23550161355245
H         5.56615846916054    2.23225324058963    2.81384079375814
H         3.50052559785340    0.08709100904435    1.01278173099714
H         5.27705473242980   -0.03747538002226   -1.12253105555656
H         4.48340093221899   -1.44153465832540   -0.68983998261707
H         6.09557167813248   -1.15081914571399   -0.01484992176140
H         5.04057024313680   -4.44135811143080    2.65256922360891
H         3.22100276035913   -0.93831979251979    3.72352954206388
H         2.16963177481621   -1.86698652295571    1.28716988242938
H         0.61228649564318   -1.60311541462024    3.26396125512902
H         1.14904469025149   -3.17106966168063    3.80245792205132
H        -0.71009258198764   -3.17467730088203    2.38919710575894
H         3.17784636726787   -3.78898790204005    0.72619189574769
H         2.41715773516662   -4.92024912062381    3.50813659386263
H         3.07499801024897   -5.91742148827604    2.13136037141803
H         1.46881223677719   -5.25608254809549    2.04642066051022
H         6.86876449867248   -0.95949421641147    2.88584567183046
