37
 energy: -56.173766860606 gnorm: 0.126119352031 xtb: 6.4.1 (79825abcba525fcdf90b791dcacef51065a7a4e7)
C         3.08937611934815    2.02935394670566    0.63331759913370
C         3.34493391185477    1.41455593225592    1.99702683452717
O         4.65262280720745    0.84133596943191    2.05937609666770
C         4.72672598918263   -0.41527631329662    1.36223273119383
C         5.85999571315426   -0.35757039179112    0.32910839525048
C         5.06065587992609   -1.52544972079511    2.38329247403932
O         5.33291037937865   -2.77261971967748    1.71364566686833
C         4.30208225396770   -3.68170606562654    2.14850913424191
O         4.12544763398010   -3.32202918869069    3.53210832549102
C         3.88617624145317   -1.91730316215161    3.29602182433650
C         2.59921332230552   -2.05538199204422    2.44542504716290
C         1.40927268660611   -2.04831233766833    3.40873039179619
O         0.17780681822075   -2.26764456207945    2.73328301534606
C         2.89659453739822   -3.35203784561157    1.63630270762224
C         2.10437151979832   -4.60784797147487    1.98286660457367
C         6.30146715126204   -1.10083828310512    3.18614784269699
O         6.27999671529407   -0.30095544712381    4.11947509328647
H         3.78030548240687    2.75384405477215    0.19095059556965
H         2.19402037129502    2.65454972606171    0.71666315708349
H         2.90254757145319    1.22678324164790   -0.08651146172753
H         2.55709735121889    0.70428955156218    2.26076829304442
H         3.39123880254128    2.25517896543635    2.69707885908899
H         3.80257255483045   -0.56995016764702    0.79313550437836
H         5.73890758958241    0.59101305974845   -0.20331217660587
H         5.89148539899440   -1.20466343842509   -0.36362662032788
H         6.89754765161103   -0.37958246358221    0.67393174983221
H         4.69952086016447   -4.68272576850947    1.96097003098505
H         3.87143312372824   -1.34717857891198    4.22653759315691
H         2.45250991816490   -1.13787939402430    1.86638220989979
H         1.40401115204861   -1.02537423831981    3.80214741679236
H         1.59053550418046   -2.84402618774772    4.13706680470240
H        -0.40487445809033   -2.61228161741531    3.43086002405371
H         2.80460142648306   -3.03540966368126    0.58984810599108
H         2.29502184575180   -4.94299358193936    3.00679837048576
H         2.41562608287808   -5.45364310087512    1.35839487132438
H         1.02622370034163   -4.55735351196537    1.80342521789616
H         7.18180162740993   -1.73253636900330    2.98793387913731
