37
 energy: -56.181373448073 gnorm: 0.118366241104 xtb: 6.4.1 (79825abcba525fcdf90b791dcacef51065a7a4e7)
C         3.38706402172457    2.44436811324829    0.56613510023557
C         2.94031714355259    1.26681456035014    1.41276023622275
O         3.97648911847016    0.57429158531117    2.11224460059786
C         4.72094053423477   -0.36199842377313    1.31241479332527
C         6.09611929583005    0.22144587593070    0.96105701548855
C         5.02190926214187   -1.59446044743381    2.19389786600962
O         5.21357195713356   -2.79283167267594    1.41598127352165
C         4.28924737986709   -3.70146616644851    2.04697913052120
O         4.42769832042505   -3.36989243257768    3.44189997718336
C         3.98319046337485   -2.00908451463520    3.24991708589734
C         2.56425110811170   -2.14182110957892    2.64341374028942
C         1.52501504242233   -2.36193260122156    3.74591326955656
O         0.19028530158351   -1.97944781022834    3.44087906285773
C         2.84123420401946   -3.34592452186077    1.69586622506041
C         1.96341603105583   -4.59218882678535    1.72816881938640
C         6.33649757755643   -1.31367254043217    2.94055710213859
O         6.34758794094755   -0.81954122806040    4.06620561410989
H         3.88687581134350    3.22330056194698    1.15043834686103
H         2.48717808582203    2.84873259236926    0.09055878594875
H         4.10545224248293    2.14910535206959   -0.20452486750160
H         2.33683754468024    0.51461742679060    0.89823503405886
H         2.25857903350013    1.67366218036466    2.16679752161688
H         4.20489037583618   -0.51469769413853    0.35730725530257
H         6.05927169003800    1.05086649378095    0.24786120883401
H         6.66932602896195   -0.62600678770523    0.57157265340969
H         6.58244215726817    0.72261874700511    1.80261363358476
H         4.64234892345104   -4.66071710455963    1.65926048026017
H         4.01249718313512   -1.47247437306533    4.19981691369163
H         2.25549248132251   -1.18258984875600    2.21543358822375
H         1.74204799904971   -1.69894867746624    4.59122741572994
H         1.56666180731536   -3.39058610497785    4.11554576726982
H        -0.25881537481348   -2.78099270476991    3.12348307018106
H         2.84353702979683   -2.90794219466234    0.68990918921734
H         1.91205993261959   -4.97412317490667    2.75217814313261
H         2.37171732493648   -5.40552732645222    1.11662627163801
H         0.94711276762528   -4.28939895269699    1.45872940999689
H         7.25391860362851   -1.74091165245725    2.50567152880366
