37
 energy: -56.175867101996 gnorm: 0.118573098658 xtb: 6.4.1 (79825abcba525fcdf90b791dcacef51065a7a4e7)
C         3.26828753610508    2.83279654693774    1.44229976709197
C         3.29336179185794    1.32901689839619    1.64480239759003
O         4.58458638543584    0.85768710704555    1.25351468241069
C         4.70203275180967   -0.51572789682476    0.84058350329564
C         5.84329266262948   -0.60326532933821   -0.18159023239662
C         4.92201982338917   -1.46187557839505    2.04181929277187
O         5.12406763222847   -2.79450386650430    1.53068240420307
C         4.38184213475491   -3.70467899794389    2.36664495663799
O         4.47472754178010   -3.03109108496438    3.63651329364161
C         3.89971317185473   -1.80290155242657    3.13936965715424
C         2.53309208735084   -2.29824759878337    2.60473587498628
C         1.44098665656629   -2.16919355892010    3.66991973579004
O         0.21864013400277   -2.41792857716236    2.98812516451830
C         2.87151603637071   -3.73632854898516    2.11298048767770
C         2.07293401253557   -4.85632250582188    2.77075187804454
C         6.14819219710756   -0.94864437980392    2.81485183492421
O         6.13339675128072   -0.32994795466847    3.87709904335255
H         3.23895362688001    3.01353000589813    0.36321088846263
H         4.05784043631457    3.34682436902473    2.00074383427597
H         2.28259600176949    3.12642506467480    1.81562671984294
H         2.55297074608552    0.89573122060784    0.96744801673825
H         3.30267912290415    1.08708828843475    2.71262625867117
H         3.83815122629708   -0.96906133900253    0.34053076353867
H         5.51636555853179   -0.08335741977540   -1.08754773446241
H         6.13139719617743   -1.63699963041053   -0.39799080401510
H         6.74872324771283   -0.14974557417946    0.23122570243914
H         4.95954753188878   -4.62620833943598    2.25615081083350
H         3.91358441657392   -1.09347840143532    3.96861351677305
H         2.19641116267359   -1.66207663592601    1.77977771237306
H         1.64420512991712   -1.18081920028480    4.09773438371461
H         1.50192514257077   -2.91323952749722    4.46940254567896
H        -0.11923396445450   -1.60498050408637    2.57598152968582
H         2.72725134166184   -3.75372394801686    1.02547486776668
H         1.07759594054526   -4.75660030414526    2.32750928561491
H         2.14115963173903   -4.85548371392811    3.86508195139527
H         2.45457975162241   -5.80780738218806    2.38842389713475
H         7.07021881737103   -1.18692779949243    2.26131053094074
