37
 energy: -56.180836115550 gnorm: 0.121415683836 xtb: 6.4.1 (79825abcba525fcdf90b791dcacef51065a7a4e7)
C         3.37016965046348    2.69776847493832    0.99354817172880
C         3.54725913138190    1.47809334262501    1.87899787834596
O         3.35638968991224    0.27344804493791    1.13407007152416
C         4.42773823672296   -0.64215512646183    0.84345364356688
C         5.56385656319860    0.01170419186389    0.04553166281203
C         4.92696412841691   -1.48882410819643    2.03529370631315
O         5.15747910061622   -2.78719451978636    1.45298819075513
C         4.48353662949724   -3.69090959351314    2.35145996497393
O         4.53585412795554   -3.04264833432293    3.63673589820229
C         3.90378309569899   -1.84852723988539    3.12604619964809
C         2.51081571704844   -2.31273926815162    2.63309237586996
C         1.48035407918865   -2.20226769267344    3.75999559365272
O         0.19991798811056   -2.78715607623442    3.56192234368348
C         2.97250353533349   -3.70102927322960    2.10024501864981
C         2.36221320645926   -4.87021829603693    2.86531085918130
C         6.24758779201479   -1.07007631092507    2.70244287879631
O         6.62989062122522    0.08627251473303    2.86999996548633
H         2.33812975918878    2.51963811536038    0.67555271233521
H         4.07139539266845    2.71526657052903    0.15244506102118
H         3.33929704315918    3.60024090755005    1.61142268768942
H         2.82813073750024    1.40550472557611    2.69894275648061
H         4.50715203841816    1.56277337649638    2.39890073982151
H         3.97837366690816   -1.28970739940435    0.08148061206149
H         5.21817887471542    0.10766885268883   -0.98851008004643
H         6.47052051881970   -0.60166430202518    0.03212835979549
H         5.88703087142805    0.99320818437993    0.40345629043499
H         4.97246914224952   -4.66868215868486    2.36010052198571
H         3.77456630131169   -1.00287769041493    3.80376221072537
H         2.22792353997680   -1.60788826129496    1.84456167581795
H         1.35052654133003   -1.15753529628343    4.06476773797825
H         1.83793997106089   -2.67894695891763    4.67727413002191
H        -0.39710637563854   -2.15915361955529    3.12137645210703
H         2.82034838619943   -3.76110665077734    1.01533813470161
H         1.38022183283919   -4.62373653095028    3.28009524795195
H         2.98638844213072   -5.11674961810347    3.73239871569086
H         2.20286437901429   -5.79959788890220    2.31032151800874
H         6.80636242678282   -1.97103948646117    3.00136833118335
