37
 energy: -56.176370968333 gnorm: 0.116975375645 xtb: 6.4.1 (79825abcba525fcdf90b791dcacef51065a7a4e7)
C         4.18104092236656    3.01437275909886    1.61666557107590
C         4.83852186773625    1.85860980760212    2.34804787289245
O         5.30356731256901    0.81876743541589    1.48492599126164
C         4.33248914852598   -0.20333017710573    1.19700538057982
C         4.55261847226821   -0.76030797835562   -0.21589764241350
C         4.66242934435256   -1.25545719538185    2.27900602314930
O         5.28058816222321   -2.47816798189988    1.83085383465077
C         4.47480425063400   -3.51946370192908    2.41785158198201
O         4.06730396253512   -2.96162692451494    3.68184351730684
C         3.45362659460164   -1.81982542921042    3.04471537098372
C         2.38768254810981   -2.51623320246707    2.16287997205689
C         1.15305928155762   -2.72812813129267    3.04309119191057
O        -0.07151772662754   -3.06474230835199    2.40438468512409
C         3.13104451794816   -3.81948332622575    1.74648708917971
C         2.53320995667057   -5.13209133978692    2.24089274297738
C         5.72561170457118   -0.56543636237770    3.14963726711323
O         5.53269164037789   -0.00229879315517    4.22529112478230
H         4.99006017929160    3.43830421064996    1.01356704177575
H         3.80475086322933    3.68188678769516    2.39916731153496
H         3.33107460850270    2.82769823694204    0.95342473441686
H         4.10517636219910    1.49211368671449    3.07096508798586
H         5.76599566366121    2.18507570447617    2.82979099988191
H         3.27236985728053    0.07460924804493    1.16958277442782
H         4.62444056393206    0.09468751556183   -0.89543340847631
H         3.66855138479510   -1.35621897104075   -0.46440421150690
H         5.38588951066843   -1.46281504482671   -0.12620421299348
H         4.98839686652878   -4.46827525897377    2.59433971180239
H         3.06161299964412   -1.09949410971004    3.76483141812275
H         2.10110515456338   -1.89928056414507    1.30505345206396
H         0.94663085976225   -1.77225770230891    3.53797099296235
H         1.35216216249465   -3.46125750332559    3.83009184593848
H         0.11137736975582   -3.74433609091920    1.73385688954131
H         3.25636256240415   -3.79198778400413    0.65684368389881
H         2.60508509943596   -5.03388515229757    3.32822705159158
H         3.21843584444013   -5.89936077784205    1.86144993781002
H         1.48520967450441   -5.31981045795996    1.98868536268101
H         6.70657755371324   -0.87427189445885    2.75511646466186
