37
 energy: -56.178365731643 gnorm: 0.128438027697 xtb: 6.4.1 (79825abcba525fcdf90b791dcacef51065a7a4e7)
C         3.94590662450084    2.63846139037463    0.45960732476133
C         3.21654844442458    1.79262788946027    1.48702719817871
O         4.01844742371197    0.79635050502900    2.12492076838716
C         4.42362974523417   -0.29566868867980    1.27999711729727
C         5.70028174949891    0.00482323080432    0.48322837756668
C         4.82365501344030   -1.39042586511654    2.29392202081935
O         5.00850309074452   -2.67634897746622    1.66924983231232
C         4.36759797257740   -3.67670487212901    2.48575431492644
O         4.33853797471532   -3.07574865015937    3.79454043386508
C         3.78475347614039   -1.82024978513503    3.34366553130440
C         2.48069437511236   -2.28365758160308    2.64829708314259
C         1.31200662021359   -2.48824299675050    3.61591251777921
O         0.12229077934738   -2.69277340963938    2.86518786781065
C         2.90264211112005   -3.65292751853315    2.03879653891978
C         2.09256772437599   -4.86499130613267    2.48541022543576
C         6.12716765674686   -1.15877665675095    3.07602028380409
O         7.26294587569187   -1.31680775550746    2.63284164113322
H         3.46459935133931    3.60709084576357    0.29210163729322
H         4.01286291966105    2.12110847130261   -0.50337812215040
H         4.98724861537025    2.82887275125874    0.73624588135628
H         2.30567529346389    1.35338022890655    1.07218273113480
H         2.88157207864710    2.38945013174548    2.34169561880824
H         3.61285459747563   -0.73500709962295    0.68713906722231
H         6.31846112983435    0.62555207901868    1.13934918942491
H         5.36190096691579    0.54875004017435   -0.40451151478020
H         6.18999673496153   -0.93238100533536    0.20442886831159
H         5.01202720964867   -4.55863094449279    2.53142893321864
H         3.54273526888057   -1.11820590967797    4.14346587495226
H         2.19701998876976   -1.51290877286059    1.92435051692633
H         1.13718439119753   -1.58104256333754    4.20551539709879
H         1.56324161893206   -3.34192941475249    4.25198731335620
H         0.00914128237808   -2.10450036968999    2.09965676237001
H         2.97760070087507   -3.51144773322011    0.95337124902096
H         2.17179526245313   -5.10122003456185    3.55078592144319
H         2.19547604469641   -5.71664959301778    1.80254728937929
H         1.05304112333046   -4.55096269856932    2.35153674799160
H         5.98128707618024   -0.74314382861491    4.08561834923920
