37
 energy: -56.174470967352 gnorm: 0.127790044511 xtb: 6.4.1 (79825abcba525fcdf90b791dcacef51065a7a4e7)
C         3.56463775438229    2.81635388462645    1.88844743604803
C         3.33186677902809    1.35456446182323    1.55381536572382
O         4.61179038783582    0.86530489473816    1.14768800049207
C         4.54862244141996   -0.54196232719098    0.85411798687472
C         5.53694102154629   -0.83207239391645   -0.28344021447127
C         4.88830037491037   -1.45148347505900    2.05576158489908
O         5.16736137505580   -2.83721092904854    1.77315451329597
C         4.37442581729063   -3.62300034745510    2.68526143745835
O         4.28117468787252   -2.78221385026688    3.85115005182265
C         3.79581590652069   -1.63292426069942    3.12327427656877
C         2.55353845450304   -2.19273400591935    2.38692246388570
C         1.49187037490199   -2.17243381254284    3.48983437949760
O         0.17687880705167   -2.56920284106345    3.12348006207292
C         2.96285616211723   -3.66577636906437    2.09190352591978
C         2.09604150665571   -4.83122415699333    2.55574264311284
C         6.17855513026070   -0.91471195727334    2.69732471464612
O         6.26744236095034   -0.01509406654210    3.53048736730344
H         4.24404672647035    3.35496506622051    1.22042100485643
H         4.01526085963702    2.87324717955983    2.88503166774191
H         2.54523911864584    3.21306459282448    1.86343630718537
H         2.60533497410841    1.19308819328367    0.75331471736105
H         2.91556388438227    0.75183803052151    2.36761928017104
H         3.56512254910175   -0.74611096437785    0.41490673701432
H         5.52697484356916   -0.08311503848237   -1.08150544464431
H         5.28893507779369   -1.79624702517008   -0.73874271519317
H         6.59502154798261   -0.85126425956914   -0.00776109987447
H         4.76081004995080   -4.62506003424894    2.88959551848590
H         3.77371931820066   -0.75904054356498    3.77669450475680
H         2.30239913024274   -1.62532640268965    1.48492403523883
H         1.31452889883278   -1.11241531638482    3.70458490584848
H         1.97477229112537   -2.71648708232205    4.30672020603094
H         0.11857814744351   -3.48257302415118    2.79597159893628
H         3.07255136595455   -3.86657360074624    1.01885608371060
H         1.12051691618787   -4.79686903858090    2.06149787812545
H         2.12590653232611   -4.84475071344920    3.65170745239856
H         2.57518393487893   -5.77522537471424    2.27927228080697
H         7.08107643594812   -1.37003837638641    2.25977107692764
