37
 energy: -56.173440873690 gnorm: 0.121347966367 xtb: 6.4.1 (79825abcba525fcdf90b791dcacef51065a7a4e7)
C         2.80772038544432    2.38753053992594    1.93850853829280
C         4.14370088487928    1.69576362544898    1.73950123540155
O         3.66542597227135    0.44462529352280    1.24107895740519
C         4.49504673972967   -0.67195473068162    0.87290373588389
C         5.73606871579345   -0.44595158558802   -0.00103170932560
C         4.99139404955950   -1.59459273526089    2.00821675298340
O         5.14408249726002   -2.93213956050166    1.49281678843637
C         4.33216555947592   -3.77659309160084    2.33295962081986
O         4.39767755276873   -3.09639839790837    3.60101219472075
C         3.96295153871017   -1.80083070516383    3.13329379076721
C         2.56220194390838   -2.18556962499121    2.59595707771516
C         1.52978012978913   -2.23018369124711    3.72559448382333
O         0.13539396506965   -2.08151843878152    3.49229246876100
C         2.87240649551872   -3.55577272967989    1.92457971940333
C         2.07031452786274   -4.75938046607564    2.40703160512284
C         6.30731315475519   -1.11783208829499    2.64503733821945
O         6.58530950342526    0.07954150150261    2.66473067022593
H         2.97066236269713    3.39491355836042    2.33421958876205
H         2.10815695395136    1.76926096385248    2.51107460170037
H         2.36489381622965    2.50596473300334    0.94500137055621
H         4.65273950922643    1.49088273514217    2.68482014025892
H         4.74989995953963    2.23482080344837    1.00410739746647
H         3.71054908357495   -1.28077044898607    0.40840174226928
H         5.62462826197294    0.08180090102520   -0.95339870252188
H         6.26275075943453   -1.40536439028171   -0.02497191795466
H         6.42693192892567    0.08784830843936    0.65750257880924
H         4.61730276234127   -4.83198661759884    2.32978241255712
H         3.92082449497154   -1.16769535502295    4.02125997473900
H         2.20569413361350   -1.49851854693611    1.82169193466306
H         1.79305157251420   -1.38266123610579    4.36871253898122
H         1.67218019427835   -3.11436215601476    4.35364012893052
H         0.06512344320171   -1.39236866855403    2.81035368852656
H         2.88277853664583   -3.39088234100041    0.83991988140631
H         2.18116078361437   -4.90597864519456    3.48560866454770
H         2.33447189846730   -5.66713013250737    1.85167120076121
H         0.99328602641680   -4.60545188768788    2.29098322030742
H         6.82731693726128   -1.89248571355788    3.23055238974073
