37
 energy: -56.170349787844 gnorm: 0.121429482886 xtb: 6.4.1 (79825abcba525fcdf90b791dcacef51065a7a4e7)
C         2.49022708615501    1.50245961581551    1.74025800530536
C         3.91208999520237    1.52758652499010    2.27003509231655
O         4.98953053409578    0.90746819098738    1.56498620372566
C         4.87807943892883   -0.45047299838306    1.10222386689199
C         6.04714461264113   -0.66876955121573    0.13237367395412
C         4.98069013537769   -1.44431495122606    2.28048802801684
O         5.35658617217454   -2.76338614152560    1.83693897858354
C         4.36625470097611   -3.65342047620107    2.38941822375283
O         4.03734495219719   -3.06212418000799    3.66107110112792
C         3.70571627839282   -1.78663765782735    3.06997093411129
C         2.50125931376997   -2.19867279364799    2.18772116155078
C         1.26175753281714   -2.18097701435950    3.08621327484713
O         0.16610358161598   -1.59259353221184    2.39759780432667
C         3.05003647899668   -3.53826681092534    1.61434305134472
C         2.25410947725074   -4.78222146267032    1.99363181217443
C         6.13665466413063   -0.82950397916263    3.08686123352102
O         5.99069816092123   -0.05824379895922    4.03302598617030
H         2.51165419463297    1.96779508708691    0.74982292627768
H         1.86422529859709    2.11954437246268    2.39356216393232
H         2.01862433726371    0.51518661898216    1.73242256768824
H         3.96882421070534    1.24751644526872    3.32505467188068
H         4.31768824502739    2.54372734590082    2.22746802075753
H         3.92983104007273   -0.67549078472989    0.60018082424934
H         5.62153168636023   -0.09092567556929   -0.69400073740638
H         6.13123654327254   -1.69177352026319   -0.24819362452630
H         7.01723028563858   -0.46088917626259    0.59239677156756
H         4.66691322984937   -4.70163698214622    2.46697735245228
H         3.54694520904219   -1.10304834424767    3.90580369529050
H         2.33753190670665   -1.61699660546773    1.27477556721477
H         1.53977101944136   -1.51911320259580    3.91437496862526
H         1.02670612030517   -3.15726170862146    3.51992942150105
H        -0.47723949336864   -1.16813276343896    2.98992254216485
H         3.17248630832875   -3.47112332089624    0.52609621773429
H         2.43766008363851   -4.96520322844421    3.05661499219414
H         2.64728214814923   -5.54147626423028    1.30722001741306
H         1.21134742953696   -4.68999007309388    1.67536728163377
H         7.10649169159126   -1.23402679942662    2.75656215545268
