37
 energy: -56.176423041580 gnorm: 0.115992866013 xtb: 6.4.1 (79825abcba525fcdf90b791dcacef51065a7a4e7)
C         3.53166398042750    3.02626567927708    1.95436004748942
C         4.01532309041060    1.91853197493084    1.03676037472695
O         4.54614619704774    0.81774568202676    1.77771594273192
C         4.50075999303174   -0.50592602410850    1.21521450027657
C         5.33924213425139   -0.73459940830718   -0.04955120727657
C         4.90310159505569   -1.52080701396169    2.30823553026571
O         5.28521961637729   -2.73640178178591    1.63421954662362
C         4.38756603188297   -3.69677374050448    2.22587366351995
O         4.30104532565548   -3.29134426229468    3.60538628499471
C         3.80750469266463   -1.97116486092562    3.28949574940097
C         2.48327700490128   -2.29175715975107    2.55295261902405
C         1.46486488414331   -2.51309005482168    3.67447585786455
O         0.15697978453802   -2.64518268465476    3.13333625687078
C         2.96667921356278   -3.49462475556236    1.69047781152438
C         2.13376649237887   -4.76655462745688    1.80551567957768
C         6.09115172167625   -0.88442571714408    3.04853274377412
O         5.99476405504742   -0.23017702239914    4.08489240544962
H         2.65058284820413    3.44290861747335    1.45630124788056
H         4.20883660089221    3.88418448710600    1.88442637180880
H         3.40396748581789    2.78960362032764    3.01495572521259
H         4.83308623958930    2.26508806799800    0.39966804308010
H         3.26199786304702    1.57146012914969    0.32198328355582
H         3.46863384871564   -0.76632475809233    0.95298681910620
H         4.97232080545824    0.02166152935406   -0.75053814916970
H         5.14746839442457   -1.77001568593311   -0.34884370620189
H         6.42899713609773   -0.70947894500154    0.03822518942090
H         4.73355774029486   -4.73151128236421    2.15675952059902
H         3.69837605550724   -1.26613209792485    4.11541265270906
H         2.02703797266270   -1.47750106429066    1.98071450804698
H         1.44552314131584   -1.63588273201648    4.33124080784508
H         1.62367049777459   -3.41396006539013    4.27422969531866
H        -0.21604645195291   -3.54106331757818    3.18950714476361
H         2.99785073276849   -3.17037513485545    0.64277847962155
H         1.78184224562457   -4.85436814536193    2.83776782794320
H         2.75159865579233   -5.63547458799058    1.54963432330950
H         1.25360859176040   -4.74024599183552    1.15606856882833
H         7.02547359595470   -1.09791919170220    2.50559333362763
