37
 energy: -56.172775461549 gnorm: 0.119919346813 xtb: 6.4.1 (79825abcba525fcdf90b791dcacef51065a7a4e7)
C         2.57646685955643    1.50631328885367    1.58762473440315
C         3.94404406424994    1.54738028075624    2.24415755936679
O         4.98312733071670    0.94832939110331    1.46700712692612
C         4.82178490086956   -0.40476065957172    1.00474040160613
C         6.07954471309513   -0.55994756640536    0.13933099928891
C         4.96296913328659   -1.42307326615881    2.15785081649097
O         5.28232020768214   -2.75781028537139    1.71685834506189
C         4.40209822702071   -3.66399725262254    2.41125397506266
O         4.25961143416418   -2.98466809720100    3.67344388751755
C         3.78172627414260   -1.75495269714014    3.08550795896506
C         2.53469638458676   -2.21575962941782    2.29088376600952
C         1.30467059147084   -2.21520379548492    3.20247693461043
O         0.27111670533532   -1.51305643330858    2.52453931773778
C         3.02647267077409   -3.58727975793080    1.74177579916214
C         2.14926453155464   -4.81373157435789    1.96783934749077
C         6.02779513388598   -0.84909296056486    3.10715396926686
O         5.65490659620775   -0.35535719098136    4.16948746024519
H         2.65020192925693    2.09651719297567    0.66883185281418
H         1.80768044934072    1.96178518954557    2.22086320596798
H         2.27239686649652    0.48282537689858    1.34847530003336
H         3.88202515108755    1.04286652742243    3.21180618422657
H         4.42014615491561    2.52120111106190    2.39863685300726
H         3.92233995916043   -0.66762150187975    0.43574285442102
H         5.71715459186275   -0.21704152851030   -0.83485246375435
H         6.52860305131034   -1.54888365039986    0.00224684409349
H         6.91570556670072    0.00745821973024    0.55740684672055
H         4.79183822773781   -4.67685933732406    2.54309452414605
H         3.62801141569596   -0.99797123448615    3.85652663774549
H         2.41673188598438   -1.53379729458950    1.44257058359084
H         1.58699590366835   -1.50696051669382    3.98980842048765
H         0.91757741650290   -3.15665538241537    3.60287478787941
H        -0.54380501481489   -1.47722802201980    3.05324033555391
H         3.12838418584591   -3.51477436176753    0.65175727613107
H         2.18579326665222   -5.17646677292616    2.99943772460829
H         2.42869857592537   -5.54101240419471    1.19635185084345
H         1.12867358706685   -4.57026388331898    1.65756651547971
H         7.08568440868035   -1.05322100090432    2.87797701875563
