37
 energy: -56.175958454129 gnorm: 0.121253426677 xtb: 6.4.1 (79825abcba525fcdf90b791dcacef51065a7a4e7)
C         2.68879526845188    1.87334680638211    1.04219278927726
C         3.77565459108700    1.66404972031979    2.08042243489373
O         4.94322950493738    0.95395755043349    1.66202462957374
C         4.83967345077926   -0.42002088180805    1.24725482430810
C         5.87624053235318   -0.49094846969880    0.11788593502138
C         4.99954412922756   -1.41806553641030    2.41554648078595
O         5.35061746959733   -2.65004378451679    1.75451735524465
C         4.31578910636327   -3.57091801777000    2.15360602297880
O         4.19850933095545   -3.21470877974432    3.54438796403245
C         3.80153904430910   -1.85187268453178    3.27730141889799
C         2.49911556429661   -2.13587325596154    2.48870079706810
C         1.48726793718975   -2.55938530849832    3.55676812342505
O         0.16051433576581   -2.52703756466621    3.04733463695422
C         2.95448999642071   -3.26701253223676    1.52040898768328
C         1.96060436967227   -4.42313153659919    1.53946515199434
C         6.18255329110700   -0.99191001306498    3.30062559228006
O         6.11398626249670   -0.46762162653963    4.41048754016637
H         3.03305407236724    1.92048484261008    0.00429985282955
H         2.18650316057025    2.83393885561062    1.19853763706576
H         1.91663305633583    1.10761460009732    1.16301590111925
H         3.39277548554984    1.06053714263799    2.90740520020312
H         4.23278687924537    2.60786174402877    2.39524460162146
H         3.89024896592609   -0.61982328332098    0.73683599352104
H         5.49312237636772   -0.09862485273772   -0.82934540633914
H         6.26232186388422   -1.51455405473032    0.07772566399631
H         6.70764991758852    0.08077694530957    0.53953768530352
H         4.61290281316865   -4.61918294276760    2.06397953718300
H         3.80526871932343   -1.19617045576274    4.14974607569756
H         2.13581521945141   -1.25445569375011    1.95042628450967
H         1.45951413571406   -1.77173856554443    4.31837782099648
H         1.64319275147521   -3.58818685680535    3.89402988780798
H         0.13105597194870   -1.79046655645390    2.41369340753423
H         3.15717784759601   -2.98306802329288    0.48017991214558
H         2.13167735187769   -5.00669058730848    2.44902507918609
H         1.98958592834780   -5.10202381126832    0.67895419968609
H         0.96076276703600   -3.98329904863064    1.60283534723468
H         7.15715339294877   -1.16700374369696    2.81811458842736
