37
 energy: -56.175782259989 gnorm: 0.117916782647 xtb: 6.4.1 (79825abcba525fcdf90b791dcacef51065a7a4e7)
C         4.02527677093024    3.04825568854077    1.54775281669612
C         4.85090764047750    2.01510239903976    2.29200898746255
O         5.22304952182075    0.87101958053569    1.52057927683155
C         4.30282431598308   -0.20884852275263    1.28048506863077
C         4.33735626855541   -0.53753398747270   -0.21809752008804
C         4.66517889974345   -1.35566246665085    2.25005948390666
O         5.09369498742306   -2.58551688428167    1.63214791921655
C         4.50520735081879   -3.61077086015309    2.45718580620224
O         4.25598244478101   -3.04098362049968    3.75647155586135
C         3.59111235863609   -1.87617996044534    3.22035294311748
C         2.42708149544244   -2.46853879297243    2.38788816894751
C         0.99693894532297   -2.56880314279346    2.92510824235082
O         0.17188600183731   -2.92627214161250    1.82404167882373
C         3.07960442324186   -3.80680247124117    1.93215220491496
C         2.57550170277110   -5.09491516310522    2.57357964001623
C         5.82256058554892   -0.88092748291962    3.14425125703617
O         5.68068418161159   -0.22829006411999    4.17638929304915
H         4.70236576462302    3.72463951982570    1.01670358661309
H         3.37661618583927    3.58617167268577    2.24729838932055
H         3.32956735251071    2.55698824196020    0.86085891699865
H         4.34225554987709    1.66886391841409    3.19540055558292
H         5.83966386070478    2.40861585273500    2.54963736548361
H         3.25919623016613    0.01719214126668    1.52868139366439
H         4.44665841043611    0.41482816275244   -0.74630580010682
H         3.56165009126011   -1.15332752779233   -0.68448613591100
H         5.24348955475039   -1.14644679339139   -0.28173252522348
H         5.21056324111935   -4.43731481469510    2.57746472058528
H         3.21551422636476   -1.20047582866259    3.99072241637280
H         2.48736805168028   -1.86077685455454    1.47925482318343
H         0.59282477201849   -1.63723995706627    3.33752648876349
H         0.86468703670856   -3.32221404622820    3.70701115470241
H         0.70519229200263   -3.61827674999909    1.39787283840489
H         3.02701389443683   -3.97007009289130    0.84847265984133
H         2.61573520850638   -5.21676790472988    3.66015204372615
H         3.16372489254018   -5.92590224944223    2.16655665154377
H         1.55219743909940   -5.30927700186597    2.25101331464187
H         6.73479784681167   -1.38394042960138    2.78631087245158
