37
 energy: -56.171001858849 gnorm: 0.125864893157 xtb: 6.4.1 (79825abcba525fcdf90b791dcacef51065a7a4e7)
C         3.75952156307987    2.86833068608339    1.69275750244819
C         3.12503065638638    1.49562569185480    1.81960998632320
O         4.21250512302330    0.62504566338602    2.13899768009239
C         4.58342966304560   -0.45167903803293    1.25942192884010
C         5.75516192908244   -0.14611357149501    0.31673991578441
C         4.91068799048369   -1.60524361402064    2.23345886020780
O         5.14798266401740   -2.82164656390944    1.49722691314370
C         4.35545849609215   -3.80205631796118    2.19640715690536
O         4.36195863697514   -3.34031285844506    3.56083549814089
C         3.82133310870250   -2.04313296324707    3.22723212405864
C         2.56861815307557   -2.30009188219539    2.35342919151093
C         1.30512402659756   -2.21084052117361    3.21341911885368
O         0.12328933014635   -2.16010369948683    2.42504326128123
C         2.88994770887402   -3.70396962300186    1.76156301622305
C         2.17986835207672   -4.86499348234629    2.44901762192243
C         6.13182929484689   -1.19031098701796    3.07079336891021
O         6.68213989486625   -0.09211187084987    3.12069563607990
H         3.84548112449720    3.30134703746216    2.69428916067113
H         3.23485404006145    3.57186725428653    1.03759458595873
H         4.78456045269771    2.84143805560811    1.31098455800093
H         2.56296198527682    1.21245896706861    0.92595471238663
H         2.34918693372903    1.37481663882393    2.58271925233457
H         3.68562576935681   -0.60156116164966    0.64840740183095
H         5.47796741761889    0.74055238391682   -0.26199253510649
H         5.81397231339625   -1.01418371545686   -0.34766628814265
H         6.64877947199298    0.13447244209052    0.88120504673907
H         4.95781310761019   -4.71045659108500    2.28094518553324
H         3.66791548128852   -1.33034236806308    4.03933532394896
H         2.36558519468836   -1.56394036820710    1.56890253044227
H         1.31879812420592   -1.28070756087551    3.79296436252238
H         1.31472674512748   -2.98906493880067    3.98203164309791
H         0.05493205454840   -2.98282760025392    1.91185857915940
H         2.74044349454762   -3.83105561446764    0.68208118880895
H         2.14590759188085   -4.66709269741601    3.52455857326891
H         2.68559696017751   -5.80082523068127    2.18317694342254
H         1.17132206396442   -4.80635213979469    2.02884241045450
H         6.41441810058681   -2.05872402876128    3.68668491941231
