37
 energy: -56.177664696836 gnorm: 0.124825367380 xtb: 6.4.1 (79825abcba525fcdf90b791dcacef51065a7a4e7)
C         2.93834202070900    2.53352556776386    1.49635546015072
C         3.96885655696747    1.69806388618078    0.75944784739064
O         4.25184268344347    0.57929196401785    1.60252971340981
C         4.69710255674365   -0.64829786536544    0.99809490706617
C         5.94966849419366   -0.38157051318013    0.15257068149646
C         4.96773188541892   -1.68046843111339    2.11520763679365
O         5.02208664922793   -2.97230260662048    1.47787538618442
C         4.17125173656945   -3.74305876607819    2.34975024292085
O         4.38373050274372   -3.17430153172458    3.65599752603253
C         3.94850829457480   -1.85713708973187    3.25362665366875
C         2.51296899773583   -2.09664528925130    2.72379936976822
C         1.39275277431352   -1.99386963790598    3.76231691047996
O         0.10272217329648   -2.16873716671319    3.19127718006794
C         2.67538733839078   -3.51782163928672    2.10873103622374
C         1.95077557332506   -4.70577217186339    2.73202412392362
C         6.32369396548992   -1.37558884555685    2.77315862043387
O         6.58886820844708   -0.45229800776280    3.54035477249765
H         2.20550036538098    1.83405881589585    1.91065877892967
H         2.29787759521828    3.08048416287489    0.79626991271512
H         3.37985965379630    3.12739512182435    2.30230809595372
H         4.88609156035109    2.24469170385351    0.52577647749644
H         3.44006874133315    1.41499952630159   -0.15658821839174
H         3.96238331922363   -1.08493652056563    0.31151675663671
H         6.69939735591568    0.22177034534516    0.67394482580902
H         5.66133290047942    0.09164392840030   -0.79155362714422
H         6.48796838094440   -1.31956115678538   -0.00962824443995
H         4.47321438192479   -4.79367296206005    2.36379294945302
H         3.92329282883425   -1.11321239303530    4.05178655170673
H         2.12459111498647   -1.37828670814544    1.99458945998676
H         1.37135120778438   -0.94425558542462    4.07705381010693
H         1.38552920234485   -2.65543726597594    4.63338910512273
H         0.03880198254876   -1.65947212453144    2.36576571455611
H         2.55500337414769   -3.60389950749351    1.02158721120542
H         2.50855470069922   -4.93069492112142    3.64602554643177
H         2.08305372715444   -5.56512791723059    2.06402415977213
H         0.94286099046986   -4.36279716722895    2.98426998516167
H         7.19520444108599   -2.02506118235239    2.59434250370742
