37
 energy: -56.176521064561 gnorm: 0.128944411307 xtb: 6.4.1 (79825abcba525fcdf90b791dcacef51065a7a4e7)
C         4.53674189903769    2.85315317654771    2.12542151113369
C         3.79265390759481    1.75162679525669    1.39332728000913
O         4.77764661985998    0.79428086193348    0.99861607381591
C         4.26889414169187   -0.53295880849206    0.77460626183696
C         5.01595097739075   -1.15763169031195   -0.41142326803127
C         4.61940367922100   -1.30484774457981    2.06607355091585
O         5.17414161359344   -2.61047044579870    1.80995327104794
C         4.52075541772919   -3.52495762629631    2.71269937976192
O         4.20039133559389   -2.75785663894426    3.88906535284018
C         3.59152253960339   -1.67797952529083    3.14785886832115
C         2.40187578458365   -2.40848632811372    2.47707230542542
C         1.26797509878801   -2.45395075520697    3.50477269907518
O        -0.02971706927556   -2.74326115577645    3.00164399735629
C         3.15351094509411   -3.70186035102587    2.04503159201152
C         2.66954815713977   -5.06852335872588    2.51704341883944
C         5.76182331035815   -0.43610049397709    2.61801548885961
O         5.64124062251924    0.21989292665831    3.65073315171623
H         5.15956371371275    3.34998515191482    1.37494909577169
H         5.08895033734172    2.41909812956977    2.96574300831826
H         3.73775415208512    3.52252920338210    2.45818694943932
H         3.18286821372998    2.00450798165015    0.52215746117673
H         3.19846432497298    1.29388154540801    2.19099393513366
H         3.19651337616025   -0.54075615688405    0.54702343164067
H         4.91685148287013   -0.42188134214640   -1.21565910874611
H         4.41911078093348   -2.06434323912785   -0.55318361948006
H         6.05688977871912   -1.33577928360825   -0.12750150999445
H         5.15081509596806   -4.37907818706270    2.97475220330660
H         3.28330377534703   -0.88514192829633    3.83161960345018
H         1.93503331966729   -1.98245609697096    1.58310370134331
H         1.20478072665242   -1.50914683707808    4.05664135880053
H         1.40460041143924   -3.17651668640229    4.31453974272541
H        -0.08712734948950   -3.64978725181750    2.65549323894810
H         3.29931065845899   -3.70429952937547    0.95759429602144
H         1.77227751745508   -5.40849751417808    1.99127791903340
H         2.53927164165085   -5.16238225958731    3.60167805114279
H         3.42814444337811   -5.80629057971655    2.23886572515108
H         6.76553759794277   -0.66724330645114    2.22756614365941
