37
 energy: -56.177406899457 gnorm: 0.121108134120 xtb: 6.4.1 (79825abcba525fcdf90b791dcacef51065a7a4e7)
C         3.42532197013865    2.94463202504644    1.46959953949771
C         4.19384558432503    1.76578549302511    0.90154885954673
O         3.96272962090876    0.60435139512302    1.70165826352173
C         4.50839749760099   -0.56189914827351    1.05925586799325
C         5.75068976342727   -0.42779193826497    0.16835670097346
C         4.82965486022392   -1.61414147573867    2.14375437355370
O         4.98106666586756   -2.91365661919169    1.53851288742102
C         4.26193765277389   -3.82049825606350    2.39795605963952
O         4.40974870946678   -3.19737337405858    3.68822008016997
C         3.85312697679593   -1.92518733105354    3.29078105771311
C         2.48234967488906   -2.25178119195989    2.64800563344723
C         1.36824606218626   -2.16855292194545    3.69481606483484
O         0.11560884845905   -2.48007676980542    3.09925173565641
C         2.78110289978144   -3.65494676099542    2.04277521667721
C         1.99587843701871   -4.79864403657109    2.67535881576860
C         6.14605599620266   -1.11744901085532    2.76413242229505
O         6.24550261605457   -0.28951169784953    3.66746153388364
H         2.36900366298421    2.77314912875565    1.23994083616874
H         3.59539329246655    3.91130722661244    0.98370555919560
H         3.56916826106675    2.99116447309890    2.55326069348677
H         5.27023682600740    1.91173911296973    0.77987809996701
H         3.85407027050632    1.46388605969673   -0.09458041630224
H         3.72344593807323   -1.04786379541892    0.46803284229083
H         6.44990332114273    0.27287316746932    0.63538279479110
H         5.63608054043009   -0.17344849818540   -0.89023395266984
H         6.28322058154555   -1.37452268522073    0.04181212122135
H         4.64437319447184   -4.84030459285392    2.30357967103484
H         3.83756882977920   -1.24182099308392    4.14159678309049
H         2.31438776546681   -1.54625050589261    1.82786005776356
H         1.47447633099037   -1.16098917161282    4.11283210834089
H         1.53169551579138   -2.95628106408958    4.43593637933178
H         0.09494211271745   -1.85231162537084    2.35736922317834
H         2.70799244068112   -3.67223130137355    0.94817963760265
H         2.24504678322598   -5.17011106093638    3.67387460029072
H         2.28531142594758   -5.65906244488707    2.06044218620489
H         0.91397756202532   -4.69541406662715    2.54892426452120
H         7.06095500777827   -1.41808294236047    2.22943709841294
