37
 energy: -56.181160681027 gnorm: 0.108656730143 xtb: 6.4.1 (79825abcba525fcdf90b791dcacef51065a7a4e7)
C         2.83902143685376    2.44950958506426    1.47264582106851
C         3.53262879555141    1.35806857443417    0.67850816151960
O         4.19890676606510    0.58341787523989    1.67776226882987
C         4.81745569262019   -0.59073198372957    1.12157530735830
C         6.04571597003098   -0.30337262275968    0.24763169762065
C         5.10007388703712   -1.63103318824394    2.22812741780281
O         5.25097778280939   -2.95464425665565    1.67743316540751
C         4.24580935492334   -3.72771349285982    2.36310892893036
O         4.29823171656106   -3.14039502745546    3.67734745083588
C         3.96418763890966   -1.80132739685570    3.25125438277873
C         2.59852469023823   -2.05016207071404    2.56430442694782
C         1.53890751594123   -2.04500983838806    3.66936135178902
O         0.28066624349325   -2.42606791568682    3.12855859730521
C         2.85372367079828   -3.39300181782167    1.81859277039429
C         1.83582650460607   -4.47909031566107    2.14886549316136
C         6.32627452204093   -1.25375394312190    3.07581642554718
O         6.31528163973325   -0.50430438570268    4.05027926777726
H         2.36555066882625    3.20296340806672    0.83539340738791
H         3.63784853737486    2.95565137092897    2.02507130729477
H         2.09113574435352    2.03642512332220    2.15617105084281
H         4.25818056977917    1.86121937178933    0.03419594146958
H         2.75738302804930    0.83178555918572    0.11204170068464
H         4.05966724770271   -0.95770495304678    0.41947647902001
H         5.64811106743109    0.09508983571466   -0.69102829223123
H         6.63019325379283   -1.18513050667883   -0.03402300902771
H         6.77577629052172    0.34264004695872    0.74319326640096
H         4.60111737372827   -4.76158912706687    2.35799010292197
H         4.00203824397041   -0.96659911250486    3.95333347425715
H         2.17107723240206   -1.31528803704447    1.87446941214699
H         1.46882134987238   -0.99198809123182    3.96506412572017
H         1.87181244944798   -2.72559596193209    4.45832745334567
H        -0.43945888432622   -2.55668062793621    3.76829758506579
H         2.97861240463356   -3.18111070519816    0.74934614459734
H         0.95106940694748   -4.38516100383149    1.51208565986231
H         1.58808439221197   -4.52004324637350    3.21618009398346
H         2.30154617357113   -5.42026975483748    1.84155769345877
H         7.32024654859787   -1.66931247535854    2.84635888075532
