37
 energy: -56.178259177162 gnorm: 0.118163179147 xtb: 6.4.1 (79825abcba525fcdf90b791dcacef51065a7a4e7)
C         3.56897066736713    2.46198388817573    0.64231161744582
C         3.51869412169607    1.77682026367504    1.99546065988137
O         4.42501208869508    0.69970267945047    2.24228903385753
C         4.51805539367749   -0.40427198922443    1.32405297457478
C         5.51992592123194   -0.25642450307111    0.17106872120367
C         4.89736133326646   -1.57312777578278    2.26024757125010
O         5.18539547489261   -2.84946668501919    1.65528668238550
C         4.42935393286542   -3.78591022233294    2.44877614933858
O         4.37962221349833   -3.17205535988178    3.75093701901614
C         3.80433424341614   -1.93340544525148    3.28079556534791
C         2.48870541104082   -2.31477342776584    2.55793082955650
C         1.16120084895100   -2.27534463183071    3.31960193419173
O         0.07198465707301   -2.19697348340020    2.40948654879053
C         2.95760473294329   -3.70334423499656    2.03215949994484
C         2.17108678931131   -4.85442496871762    2.64956178948264
C         6.09677520567315   -1.12041067356429    3.10932815259864
O         6.98612399817164   -0.30829245578179    2.86255696964938
H         2.95502788697433    3.36566446369493    0.57602778749771
H         3.04355732344468    1.82985248587124   -0.08144860992664
H         4.61329011736270    2.64902252638287    0.37474489423349
H         2.51847325040851    1.47179844070602    2.31364964013906
H         3.83761730923498    2.49923623080678    2.75392439224005
H         3.52789119169185   -0.54583553727161    0.87528817761069
H         6.48795607245188    0.09237315303156    0.54416706983856
H         5.12519564560759    0.43130658804865   -0.58368553611459
H         5.68471400668117   -1.22941871985154   -0.30013064995822
H         4.78571827747360   -4.81780237176789    2.50684379725643
H         3.57085057987068   -1.23549571929716    4.08672756577850
H         2.41299045443496   -1.66377423172018    1.68095260718129
H         1.17016701646174   -1.34245817001601    3.89479707294397
H         0.93284588401054   -3.13785314139396    3.95239237460187
H         0.31280872072750   -1.43148867796766    1.86090416131660
H         2.82470642249804   -3.85175438103189    0.95322676734840
H         2.30104067081239   -4.98989018092684    3.72746139173844
H         2.50766406696060   -5.80408544834518    2.21704073878217
H         1.09273060628361   -4.71725272556913    2.52512970880185
H         6.21713778775145   -1.79595769500996    3.97099463080436
