37
 energy: -56.176047330193 gnorm: 0.111449349612 xtb: 6.4.1 (79825abcba525fcdf90b791dcacef51065a7a4e7)
C         4.96420402550517    3.29492661754189    1.29317026892426
C         4.31884923158792    1.99244706130788    1.72912151206281
O         4.98966332360204    0.83369366576500    1.22930366410422
C         4.22534265477266   -0.36900310425397    1.02953092920187
C         4.58315759395119   -0.85506595803163   -0.38138640328922
C         4.60466746690336   -1.27580684347906    2.22132673855432
O         5.11828243573015   -2.51768869917909    1.69987516731588
C         4.52834435082377   -3.55727111619463    2.50572402642770
O         4.28884091592071   -2.89426376312276    3.76189812420794
C         3.52431475816137   -1.82063817180424    3.17107598870181
C         2.36731506302939   -2.60047684939240    2.49872357207908
C         1.09674059533026   -2.81188533869875    3.32631828478880
O         0.15427342325479   -3.48939016779926    2.50559491430857
C         3.10143462534868   -3.90516532848533    2.07060262755522
C         2.68646360759590   -5.17906329485588    2.79845290963318
C         5.59523020161565   -0.50165069191683    3.10673756745660
O         5.23815390412732    0.25443009362599    4.00796550961014
H         4.60178700019471    3.70853227472145    0.34683938823804
H         6.05550434390627    3.23526585665507    1.22258432462223
H         4.70692131531739    4.07645809079536    2.01441411754271
H         3.27170467513735    1.96183698360662    1.41723105727367
H         4.57714930803613    1.91667396292284    2.79044313432933
H         3.15382782785804   -0.13725692045322    1.03177961696654
H         4.45028253952919   -0.09396126197596   -1.15663376557789
H         3.91007145149192   -1.68405506487536   -0.62257551964502
H         5.59587268083598   -1.21831141038145   -0.57725028050786
H         5.23723216198429   -4.38052591304500    2.62778330794134
H         3.12630442253457   -1.02149357063908    3.79882978061598
H         2.01940335618030   -2.10776975385365    1.58503830712547
H         0.75382576450697   -1.85898007132519    3.74535050903195
H         1.27393599906464   -3.47860425808672    4.17518716832701
H        -0.74349038984296   -3.32561133838701    2.84041201271697
H         3.13626365705540   -3.91730287394650    0.97405210463962
H         1.64269575603864   -5.41294918311432    2.56833886632277
H         2.91774789549302   -4.94797007690509    3.84502697338587
H         3.21477060678653   -6.04813512229357    2.39502073537986
H         6.66285127555091   -0.72811667545254    2.95767859309338
