37
 energy: -56.180966505873 gnorm: 0.119156334915 xtb: 6.4.1 (79825abcba525fcdf90b791dcacef51065a7a4e7)
C         3.95402102212629    2.95149120582004    1.62340304651105
C         3.80063193610544    1.46862615193826    1.90725565786921
O         4.75687734787945    0.82062218013372    1.06570683760846
C         4.49436603461882   -0.56551301273361    0.78234879127009
C         5.45672973737934   -0.88091993751402   -0.37062601501357
C         4.78728406411639   -1.38919673376241    2.05604488350527
O         5.24930786960024   -2.71593552734937    1.73311952530535
C         4.49731933067445   -3.62931357135549    2.55677280621464
O         4.38367792226046   -2.84059924288969    3.75674337191644
C         3.72326629657152   -1.72854960154729    3.11374645490505
C         2.45545930789661   -2.42859323838824    2.56469383645948
C         1.23422077809208   -2.34159574032995    3.48391847642309
O         0.05476671857632   -2.64203692175914    2.74943414018481
C         3.04504515447284   -3.79189105369622    2.09753355458380
C         2.26857296965450   -5.00994092503881    2.58562012319485
C         5.89908044361018   -0.59543909281730    2.76197845159350
O         5.72582079404390   -0.06153646499158    3.85573459784745
H         3.99966488760528    3.02097933687758    0.53205254803090
H         4.83286139789316    3.46949717340108    2.02188463552996
H         2.99994364731637    3.38399979020615    1.93939547021564
H         2.84885179592334    1.14698444997590    1.47669145699304
H         4.04273218673439    1.21594560896155    2.94475461649002
H         3.44317402372989   -0.61443487751244    0.47500959115350
H         5.22496354663917   -0.28030231322964   -1.25577431195034
H         5.36184184437299   -1.95003329378470   -0.58610918573257
H         6.47752656923604   -0.65141721072742   -0.05250012862555
H         5.07304992934686   -4.55154992734429    2.67159114282942
H         3.50134972011583   -0.93086084434261    3.82477727882155
H         2.07654522105694   -1.80191489448333    1.75086217544531
H         1.28827474694578   -1.36001209702631    3.96845821274096
H         1.30541091911131   -3.07851087657912    4.28913817382564
H        -0.70287472940938   -2.37839652580432    3.29841413711232
H         3.08389325178862   -3.75304242977039    1.00173929764763
H         1.19755090068079   -4.93603491538523    2.37453708272255
H         2.38756893409810   -5.24308913433979    3.65037157519989
H         2.59320535030079   -5.88253601955610    2.01086515770125
H         6.94438542036138   -0.72493045814885    2.43965926428936
