37
 energy: -56.172530674276 gnorm: 0.128017772901 xtb: 6.4.1 (79825abcba525fcdf90b791dcacef51065a7a4e7)
C         3.68948528034583    3.00268201280400    1.26776164119133
C         3.65534683950511    1.58324819616273    0.73200845824621
O         4.52135343815015    0.81024310410459    1.56568375575547
C         4.67117766538838   -0.55023265224653    1.12157453411184
C         5.77068023635771   -0.64689501806240    0.05540071989034
C         4.88756453012281   -1.50187132976624    2.31912107162796
O         5.19356989712303   -2.81598754115586    1.81173396226602
C         4.22587159100431   -3.66941227153268    2.45467803288646
O         4.15976815616685   -3.07524800108215    3.76521728339042
C         3.74896672647292   -1.76420198402901    3.31952301730662
C         2.42063149784892   -2.17066424582722    2.63456452439774
C         1.51389680849019   -2.51976602961065    3.81774922950343
O         0.26629141226889   -2.92733087855051    3.27165798796256
C         2.83997883621339   -3.44387872301341    1.84241323321481
C         1.99848108825698   -4.70833884688111    1.97584882996003
C         6.12566768898899   -0.97584432771551    3.06402402592170
O         5.99908492629178   -0.15268538618869    3.96832456597579
H         3.27347228206666    3.61004148063398    0.45781995691787
H         4.69717980956389    3.40097317382444    1.42711673924081
H         3.18887878835560    3.00792866659795    2.24066663835246
H         3.91800638485734    1.68984891138435   -0.32362906715968
H         2.66450331123400    1.12807424736825    0.83155664825626
H         3.71420547890696   -0.75895247940783    0.62913620675350
H         5.35500521196935   -0.02157625380859   -0.74092539533894
H         5.68250455693325   -1.67921808769195   -0.29811613775340
H         6.76981699099404   -0.32069727511252    0.35743131104364
H         4.80411309192575   -4.59590628153270    2.50381488020179
H         3.53662633630100   -1.11023797778305    4.16708518055854
H         1.98362517872623   -1.46317663887631    1.92244777178770
H         1.43775161990927   -1.65805498956945    4.49070018575665
H         2.04445306100041   -3.29300048803922    4.38087373657747
H        -0.36849083093324   -3.12006423808737    3.98215866252997
H         3.12484556439923   -3.12843787573154    0.83091365391157
H         0.92755877112403   -4.49024967519375    1.92418749956009
H         2.24948714861110   -5.19985018038654    2.92328026182029
H         2.20077692223085   -5.43441832631668    1.18273054657303
H         7.10205469072218   -1.30522765480772    2.67480032673299
