37
 energy: -56.173666306452 gnorm: 0.125903852661 xtb: 6.4.1 (79825abcba525fcdf90b791dcacef51065a7a4e7)
C         3.64330787817058    2.80636611248450    1.77250224763635
C         3.25795258177145    1.37388260734697    1.45237481171359
O         4.52730688265663    0.74189363875223    1.27391356089704
C         4.50045192161899   -0.62342612820496    0.82031090594011
C         5.61537011094335   -0.93441927818816   -0.18726880222423
C         4.86804782307739   -1.46811140146134    2.06044689392982
O         5.28045949274506   -2.78683554488035    1.64951421750799
C         4.42514999343960   -3.61625110382619    2.46109684173560
O         4.33768389028899   -2.96228921229228    3.74156453020236
C         3.84307460557075   -1.72799107020063    3.17754980812865
C         2.51202279679236   -2.16744895284932    2.51873870205339
C         1.44151880763526   -2.28319499521860    3.60712740191226
O         0.16123934017267   -2.59830538925210    3.07568229951952
C         2.95984166567401   -3.57174019006094    2.01688677294677
C         2.29720339479518   -4.78675770572733    2.65675073701667
C         6.08520572610076   -0.83674407747898    2.75642551314279
O         6.04394999977541    0.14574646079055    3.49424908517050
H         3.82702194593086    3.32615533419994    0.82697267263945
H         4.39606389376143    2.61829622116553    2.54546166409634
H         2.84676462651968    3.39092503860330    2.24259610202731
H         2.63235400492974    1.33285867549694    0.55701577885328
H         2.90751708172912    0.84759449543188    2.34628747579444
H         3.52609890322240   -0.82855370284365    0.36160172046398
H         5.61197183349308   -0.14235265354432   -0.94262533045620
H         5.44267903223820   -1.96489731876357   -0.51396873728484
H         6.57147063700564   -0.87111808207337    0.33976673900433
H         4.83120454787152   -4.63113331735527    2.44370117786982
H         3.78815617253408   -0.97066641687658    3.96149007964502
H         2.23823881478975   -1.52814929510021    1.67318456577472
H         1.41303918912717   -1.36158527019215    4.19960644899252
H         1.62020522190899   -3.10986336972268    4.30079968529199
H        -0.21899036409344   -1.89653502896273    2.52084035329261
H         2.93633335704971   -3.68907422265426    0.92626150865288
H         1.28759756869710   -4.73430548711168    2.23835949127133
H         2.35357256448520   -4.79371335405027    3.75173379082921
H         2.74533076453664   -5.72442297714421    2.31452664663276
H         7.00355789150369   -1.40318538144086    2.53485473561469
