37
 energy: -56.181378809203 gnorm: 0.116908955029 xtb: 6.4.1 (79825abcba525fcdf90b791dcacef51065a7a4e7)
C         2.67121099877440    2.28751707974132    1.59304360028978
C         3.28705464444483    1.18964425554717    0.74545812958351
O         4.32222302986618    0.51141986606172    1.46027061715287
C         4.88684799824552   -0.70720465182466    0.94381391222905
C         6.24323838973488   -0.45384068027993    0.27225754733852
C         5.06947536322264   -1.65007639828395    2.15385412826607
O         5.17571296455641   -2.96486965156880    1.57246382176784
C         4.24055206601053   -3.75821837735179    2.33023869199805
O         4.37369347302316   -3.22682081844612    3.66245638190543
C         4.02017468047579   -1.88749208474356    3.25323045772788
C         2.60214679810652   -2.04071428707102    2.64943074760473
C         1.55246844542699   -1.84766236698221    3.74709745443642
O         0.28788955754907   -1.66165381700572    3.12493587843876
C         2.79572413069582   -3.41886446564777    1.95110355620743
C         1.81990464200930   -4.51703773514754    2.35923921758877
C         6.36177661301457   -1.31450687327652    2.91663513767968
O         6.40667876186375   -0.45461149197099    3.79409570664748
H         2.40779642136830    1.83125229038901    2.55241478593575
H         1.70987731747397    2.48075160843770    1.10521562760135
H         3.36744680477652    3.12594301183244    1.69038926785510
H         3.75162282374765    1.64112338827744   -0.13492095655178
H         2.54445244149673    0.41716371996234    0.52033626744329
H         4.17391247180734   -1.09799180125008    0.20837963082723
H         7.02506552757585   -0.26783282962606    1.01528646230662
H         6.12614288902639    0.50331259061698   -0.24599557997488
H         6.58005352343070   -1.27202660348503   -0.37041582869921
H         4.53748918278062   -4.80933355971724    2.28382710697936
H         4.03261646107140   -1.16466539616105    4.07084026011718
H         2.43336738046594   -1.32079021840603    1.84206072222686
H         1.86734423664573   -1.09181533117987    4.47562712917511
H         1.38600470684525   -2.76081508542427    4.32583107727327
H        -0.06596288976192   -0.80564267263177    3.41979045009293
H         2.75195193394105   -3.14951290062071    0.88841022703286
H         2.18085395375677   -5.01464493706661    3.26434090091441
H         1.65625864699065   -5.24559652196694    1.55634705044440
H         0.83993680874155   -4.10262289698686    2.61433726470114
H         7.28720176628109   -1.83442884952398    2.62237423047624
