37
 energy: -56.181594066419 gnorm: 0.119462532015 xtb: 6.4.1 (79825abcba525fcdf90b791dcacef51065a7a4e7)
C         2.64314582662854    2.05700205147867    2.25380267111840
C         3.94410733530623    1.38585471951356    1.85374058123950
O         3.59277316745824    0.18274593849298    1.16700019137415
C         4.57081429126715   -0.75364495132075    0.67998657923084
C         5.72849426497519   -0.09849394725169   -0.08521297902207
C         5.00412129029857   -1.60536445527350    1.89381363498864
O         5.10295763681423   -2.98022355952185    1.47194135411878
C         4.42122246398729   -3.72410836763482    2.50151573457351
O         4.41477654366853   -2.90399106115732    3.68569478621395
C         3.93104712830542   -1.73534878188037    2.98818211097828
C         2.58376601431069   -2.26847318970371    2.44094709183874
C         1.48442134131169   -2.01756647991973    3.47654015818076
O         0.28587087218697   -1.40542157494834    3.01871993774073
C         2.92958795640561   -3.75943215380135    2.15480112603413
C         2.12163410147948   -4.88308628119419    2.79464086360283
C         6.35360288722145   -1.24670002115863    2.53781945783352
O         6.66118944249236   -0.09837447434259    2.85104821212631
H         2.81613185319154    3.12739832684714    2.40308601717163
H         2.33857750010335    1.75270018064818    3.26083626835076
H         1.84388365747507    1.95687521092777    1.51330748528020
H         4.55506404635879    1.17705429566488    2.73570351406767
H         4.44640112282456    2.11820629176013    1.21325156032789
H         3.90532958171223   -1.39716902866148    0.09273696072018
H         5.32080832997066    0.47135126245999   -0.92605373217878
H         6.48200643576540   -0.86239301671287   -0.30227899773801
H         6.21071069086212    0.62981570923502    0.57276427833214
H         4.91162896191537   -4.66262310249376    2.77328838073048
H         3.98828816152317   -0.85262417497118    3.62743147027216
H         2.30116290186673   -1.84540011047274    1.47153068927614
H         1.89234258900448   -1.29448112357290    4.19205033865967
H         1.17147231738248   -2.97107753326098    3.91170707956894
H         0.40663644472622   -0.59362337716054    2.49785026763100
H         2.97903735548075   -3.93324056696721    1.07261409303642
H         2.02814885457357   -4.74891613789585    3.87647507914164
H         2.53402584975341   -5.85704385071024    2.50558472783630
H         1.11406549083111   -4.74152884653497    2.39224974138736
H         6.88554079420530   -2.18230941009787    2.77233424255854
