37
 energy: -56.182132147138 gnorm: 0.128492912334 xtb: 6.4.1 (79825abcba525fcdf90b791dcacef51065a7a4e7)
C         3.73733155342769    2.73400042889959    0.60334904691151
C         3.14862132545061    1.60440992198464    1.42823377338910
O         4.08839351732836    0.68665105073546    1.99131962764739
C         4.54993876323026   -0.41660914487402    1.19108995942884
C         5.72523110534047    0.01232951074459    0.30245299265887
C         4.91253681524902   -1.48403414958182    2.24734924352252
O         5.08341687347818   -2.73939181613764    1.55970144785439
C         4.30168276124598   -3.66353448914316    2.34264649424325
O         4.41935728623474   -3.16000410096378    3.68708831868306
C         3.89523061748355   -1.86011054205911    3.33807425574289
C         2.52629957866713   -2.17332867561457    2.68479301263223
C         1.36239907349181   -2.27571620871784    3.67414546356624
O         0.11981992407415   -2.69819919899943    3.12793200700043
C         2.82465866713010   -3.52022129409472    1.96278673305781
C         2.07692341981009   -4.75945481870390    2.44234400763777
C         6.14317224593685   -0.98074769386936    3.01982798129500
O         7.12416858823911   -1.65591325570830    3.32506710995687
H         2.99634318696224    3.23630825806723   -0.02639768974216
H         4.59487085591912    2.36266265961783    0.03219865996591
H         4.14039441686578    3.54651711246696    1.21534209033267
H         2.56164503074731    1.00484670491980    0.72772887413761
H         2.51326358125830    1.92180367471312    2.26156792182870
H         3.74226270181074   -0.82535899656076    0.57267410219971
H         6.32598382340168    0.74445286705365    0.85112057910846
H         5.43288695111815    0.40238788577716   -0.67776605772940
H         6.30864422792098   -0.89510994509155    0.12333160219022
H         4.67856812247418   -4.68114222331975    2.20997874330379
H         3.85093691946578   -1.16849685429553    4.18118015759349
H         2.22003345297852   -1.39635100452334    1.97688746956653
H         1.18167399846592   -1.33065586091321    4.19893720634668
H         1.61809370951560   -3.09621612729099    4.35082175451007
H        -0.01421113857107   -1.98233498420374    2.48413083198316
H         2.82143457777056   -3.43243593827101    0.86913838675468
H         1.83496890615393   -4.76775146893954    3.50934708293802
H         2.60431722398812   -5.67975841818083    2.16465568099230
H         1.17239675019643   -4.78348360469660    1.82719707595412
H         5.97370817250654   -0.04693704591769    3.57893408301471
