37
 energy: -56.174961407189 gnorm: 0.129109369206 xtb: 6.4.1 (79825abcba525fcdf90b791dcacef51065a7a4e7)
C         3.11858595307920    2.39304745747401    1.90959530651946
C         3.63048388659042    1.40433373228566    0.87838487990104
O         4.57849313702960    0.62224115801791    1.60785624732589
C         4.83373937061508   -0.64108694346856    0.96799214838743
C         6.05444953838976   -0.52889014522050    0.04481574394490
C         5.00187938381027   -1.58306915383193    2.18082173464531
O         5.22042296380357   -2.92120108946821    1.69130771136404
C         4.28893213779452   -3.67022991392055    2.49718084531169
O         4.23843476261026   -2.97049352937872    3.75524800133314
C         3.82648573427173   -1.71885245026842    3.16369458538713
C         2.47714197117379   -2.09769457037918    2.50444940721441
C         1.38615013720522   -2.12862787697417    3.57810940960632
O         0.20992460533503   -2.76577739010348    3.09709178660150
C         2.87825983979505   -3.48769532674284    1.92874697746713
C         1.90969272021936   -4.60499721318009    2.30063020335001
C         6.21871421961581   -1.02938690159533    2.94058036123424
O         6.04891952531065   -0.08265944988444    3.70625012678074
H         2.25506216491779    2.91189917793546    1.48171982295848
H         3.85991294250875    3.10574543439224    2.28638974555713
H         2.79801695528188    1.99867394645644    2.87855535314704
H         4.14277565986297    1.89561637129016    0.04716719135161
H         2.81266110378511    0.77848511590396    0.50643936072656
H         3.94958983077919   -0.96734520257481    0.40791146861371
H         5.91160220286095    0.40952277651094   -0.50008827082229
H         6.18439847542271   -1.44142539774406   -0.54580487364471
H         6.93395252454468   -0.35829950253882    0.67193218927523
H         4.71026114822806   -4.66989659615596    2.63252186165599
H         3.83758227757723   -0.83066818538574    3.79782750631028
H         2.15273395022282   -1.54643640653277    1.61591276829254
H         1.18335405974750   -1.06325601788698    3.73642410000502
H         1.59676874305429   -2.59765112138982    4.54358735035546
H        -0.21699302150821   -2.16518377015095    2.46310874698730
H         2.97447976330778   -3.34956387865104    0.84456765725198
H         0.89805543693744   -4.49719737915725    1.89804408044409
H         1.77765873073695   -4.66297252616673    3.38756149611526
H         2.46032201424124   -5.45604212505877    1.88870598041733
H         7.22918962807807   -1.42387131657061    2.74916061104050
