37
 energy: -56.178321701101 gnorm: 0.118020757378 xtb: 6.4.1 (79825abcba525fcdf90b791dcacef51065a7a4e7)
C         4.66740448071967    3.14763312575474    1.83431168364124
C         3.87810141541144    1.94125652357316    1.36034393122941
O         4.72573076975064    0.79317942912547    1.28312820978344
C         4.18847029965401   -0.51697920832899    1.02737413803284
C         4.54638544030516   -1.11466925882547   -0.33997347626721
C         4.74454646024092   -1.35513964416454    2.19990286155235
O         5.24458103463204   -2.64558810160169    1.79655363395102
C         4.51541448740669   -3.54665853575694    2.65360618813823
O         4.35762858619134   -2.75260026111994    3.84502930276071
C         3.60361914343798   -1.72725490208808    3.16210945709329
C         2.45287324317448   -2.46548864436750    2.43433956750939
C         1.17693086898033   -2.52990613391557    3.27801446225612
O         0.19820306023642   -3.17483702235354    2.47365136180943
C         3.14029746720910   -3.80251952577288    2.02908987146344
C         2.61107538648793   -5.06970592311866    2.69161953202760
C         5.88307337248090   -0.54950885576553    2.84735923338300
O         5.90673342180351   -0.03662809328240    3.96439406832617
H         5.38054293793491    3.41619405369964    1.04864862719848
H         5.17332193507698    2.90486649237525    2.77483815947324
H         4.00590585260085    4.01621524200474    1.90616704374534
H         3.39354153580876    2.17939103003327    0.40996610317088
H         3.18253589166297    1.68277648460711    2.16547791748282
H         3.09670278818290   -0.42533818160984    1.06611526089123
H         4.41508365633559   -0.29545309578224   -1.05382870426497
H         3.89769110847256   -1.94213205271598   -0.64483577701474
H         5.62114762361945   -1.30425992889089   -0.40956757518684
H         5.10208807969417   -4.44654873899072    2.85653605719053
H         3.20549519509892   -0.96759254596182    3.83703866207080
H         2.07638918766966   -1.87520581474330    1.59264517464948
H         0.89986358285586   -1.49670005405560    3.51660597511044
H         1.28049941727554   -3.10957791158667    4.19983052457192
H        -0.61773697443244   -3.27892588440846    2.99164095731375
H         3.18190466073977   -3.98872527844862    0.94863643196698
H         1.62890907221218   -5.27675342850749    2.25620357815136
H         2.59923687371097   -4.86411671673392    3.76856274385626
H         3.26582728155283   -5.92417916845007    2.49584655982252
H         6.76527679079075   -0.45232593162363    2.19498460874196
