37
 energy: -56.170752308625 gnorm: 0.118814292621 xtb: 6.4.1 (79825abcba525fcdf90b791dcacef51065a7a4e7)
C         3.05505734431670    2.10101849114508    2.27147858789469
C         4.09158099653309    1.43828776882717    1.38299898759519
O         3.60899710154590    0.28276503617466    0.69423280068818
C         4.52858044541016   -0.82026707526367    0.60334054584470
C         5.71115869561514   -0.65161330776645   -0.36000826289469
C         4.91971677403028   -1.40633388405358    1.97814803465406
O         5.20710448576848   -2.79701430620433    1.73036011396737
C         4.38647517267360   -3.53834076634123    2.65510522799663
O         4.36115268746810   -2.64637803789808    3.78589047101872
C         3.83583348416834   -1.51059342200495    3.06458888573417
C         2.49846909552217   -2.07206489182011    2.52139401472271
C         1.39622275043346   -1.90336803810527    3.57046997245650
O         0.26102656280821   -2.75529816033135    3.49054068870765
C         2.94035263599750   -3.51827030198169    2.15036851628547
C         2.03045296657330   -4.67628428894874    2.54517123964507
C         6.25217670015963   -0.81722838383026    2.47007266893468
O         6.39015653261765   -0.13126418222634    3.48090802376052
H         2.19250139264739    1.45100014233391    2.44876720007488
H         2.84578597497507    3.05237536710261    1.77087519742195
H         3.41183823803326    2.30706027818929    3.28510213862819
H         4.87045309560076    1.03483559428420    2.03515613863400
H         4.43089207257396    2.11512476326003    0.59203517261279
H         3.94991767087852   -1.58670874110424    0.07459493307407
H         5.31827074813925   -0.50454486417518   -1.37092593517805
H         6.25961120331022   -1.59462394219700   -0.45150073416410
H         6.45907929227522    0.10897506181966   -0.11913096252650
H         4.81498092091981   -4.47099662176193    3.03154211259343
H         3.85162733484667   -0.65760999519319    3.74524221946843
H         2.18028531455429   -1.57168645048850    1.60106576838987
H         1.12096691127181   -0.85082223961076    3.43784800743829
H         1.91093767318338   -2.09647315631100    4.51612829288320
H        -0.25690970895865   -2.38298784215896    4.22404794948908
H         3.09116533175999   -3.56573702651335    1.06464946480228
H         1.03546352609141   -4.45899938637202    2.14530915155311
H         2.10667009583971   -4.93557764906903    3.60779613577662
H         2.47053337228712   -5.54651943598931    2.04901434273194
H         7.19353065863410   -1.01386990858830    1.93294605026097
