37
 energy: -56.175786629250 gnorm: 0.131604083347 xtb: 6.4.1 (79825abcba525fcdf90b791dcacef51065a7a4e7)
C         2.79908560797648    1.83184221191343    2.14859949388937
C         4.10517713113096    1.24836711729717    1.64197239754354
O         3.72394734443084    0.19093222177187    0.75935464400129
C         4.73927271316329   -0.82071624829888    0.63185418831955
C         5.92832336731206   -0.36329890928616   -0.22365972428557
C         4.99650396137463   -1.50433336255325    1.99312452580877
O         5.20597472954529   -2.89637473739053    1.68276146051510
C         4.23339806092408   -3.56899374786640    2.50727899286449
O         4.27725209018328   -2.81713022017391    3.73516011126314
C         3.87670078567457   -1.61499899048594    3.04184775661672
C         2.48796654234497   -1.96628096275139    2.45288901941906
C         1.43887269021130   -1.84410117919037    3.56123918663182
O         0.18916543742029   -2.30102678290935    3.06094452337757
C         2.79596219365756   -3.42332575387143    1.99836713952033
C         2.08088254967143   -4.57719448923282    2.69265165316515
C         6.30922039204183   -1.03032847668453    2.63855401603278
O         6.38717528438320   -0.07543984596690    3.40893317782909
H         3.09613917039244    2.72019707970093    2.71476438175237
H         2.30318198493850    1.06870942128897    2.75784993643625
H         2.08977319467235    2.05259468344923    1.34527965260020
H         4.71922975353103    0.98400285609704    2.50671238775883
H         4.67192423522475    2.03171407553562    1.12813455726309
H         4.33221037636954   -1.62052986497033    0.00220850126842
H         5.53165996841172   -0.01789729604265   -1.18350368929631
H         6.65103130876286   -1.18112377514983   -0.30907492373287
H         6.32161025317880    0.52927339798879    0.27085196970869
H         4.67230616003164   -4.55601993457005    2.67552824148076
H         4.01168567901733   -0.84359867415486    3.80200540401372
H         2.31019432702156   -1.28320508720325    1.61597330542847
H         1.22730954207781   -0.86655333251229    4.00940013731300
H         1.77354522494420   -2.34543020191961    4.47401198428772
H        -0.55972875482811   -1.87002651217009    3.50625577200227
H         2.78532326813981   -3.59461838917168    0.91470250779534
H         0.99542660963437   -4.60199683716052    2.55746053089730
H         2.41288569612739   -4.54763016519581    3.73721549414946
H         2.45012060687579   -5.54378595705576    2.33696102587489
H         7.20519901419135   -1.49883328634339    2.20146637028782
