37
 energy: -56.173397946239 gnorm: 0.135358173193 xtb: 6.4.1 (79825abcba525fcdf90b791dcacef51065a7a4e7)
C         3.39856983580409    2.97552013569155    1.25212787119413
C         3.68647092683731    1.59761951440310    0.68512513282317
O         4.15881605493559    0.72283605711883    1.71184943391280
C         4.53878780598635   -0.54699828120815    1.15174514619753
C         5.77316389243791   -0.46809778914609    0.24341341466917
C         4.90674633147768   -1.53256277811521    2.28303924457809
O         5.19689896210257   -2.82398808784394    1.71206243410266
C         4.30291930722466   -3.73131327561980    2.38712705010265
O         4.34618651962539   -3.15745765101719    3.70763136290124
C         3.84985738802623   -1.84758235737732    3.35531479516674
C         2.47855094393951   -2.23787582741995    2.75029922306051
C         1.52309903345152   -2.53532287037785    3.90900660428935
O         0.23480851126827   -2.45497914907101    3.31344267786539
C         2.84392913492373   -3.53191967243487    1.96520033434884
C         1.93562137307329   -4.75540266897110    2.01857900821286
C         6.15875349039122   -1.13984779362515    3.08474822318315
O         6.47322001357977    0.03480949729373    3.26548107564912
H         3.22411353500359    3.64145655665152    0.40121568295132
H         4.32939466030803    3.40992216363196    1.63204652663215
H         2.51188193746998    3.03058121179855    1.89082292264269
H         4.45112033335741    1.71970886398896   -0.08632143888240
H         2.74420880590160    1.19173878356614    0.30267645465049
H         3.72853104082252   -1.02215559039522    0.58644456250094
H         5.62436027928313    0.07538346940486   -0.69489898840255
H         6.00489888598725   -1.51515060457247    0.02336947250154
H         6.66797412965518   -0.04539570957868    0.70875124719847
H         4.75707238616994   -4.72546851539660    2.36327020993084
H         3.73462473814512   -1.17438093476764    4.20657285224121
H         2.04411172108301   -1.56814592914680    2.00106766016618
H         1.65450689779443   -1.74473485585626    4.65660914632931
H         1.77922701606091   -3.50506365026293    4.34546043615960
H        -0.41795688622744   -2.88512316220814    3.89117905066382
H         2.99161842309221   -3.28097966420738    0.90737219790656
H         0.98714383314873   -4.23406561745457    1.85825300493610
H         2.10274042711296   -5.33433714741572    2.93461385499082
H         2.20629390195414   -5.51142678930990    1.27539966508608
H         6.55534353032892   -2.02654220835697    3.60418003564821
