37
 energy: -56.172506542812 gnorm: 0.128360173403 xtb: 6.4.1 (79825abcba525fcdf90b791dcacef51065a7a4e7)
C         3.04232709102071    2.43984719062108    1.83840128730117
C         4.28362342994409    1.58219577627188    1.67528563112139
O         3.70413877096429    0.38390452021824    1.15488732706911
C         4.54786421576011   -0.70559933572956    0.74054048514383
C         5.59564443038923   -0.24868757887273   -0.28335617788595
C         4.92829115430583   -1.53697252769507    1.98579191746097
O         5.18862006308934   -2.90725577074062    1.62173823610701
C         4.35162694422125   -3.67893468428181    2.50610525933345
O         4.39368592178052   -2.89380805973003    3.71305231656204
C         3.85142944118510   -1.72032487395925    3.06874029507438
C         2.52033114491964   -2.24731397691536    2.47771236706956
C         1.46396547560626   -1.99433334575385    3.55662768837109
O         0.16692485144100   -2.09359007187334    2.98332349755012
C         2.87857217024658   -3.71141417557991    2.08719356289963
C         2.18277208943095   -4.87747060571773    2.78070460987572
C         6.24408357195792   -0.98448339288919    2.55844392250287
O         6.32323277972846   -0.39905754358825    3.63658365374212
H         3.15902721669429    3.38320997439733    2.38099285395479
H         2.28776700343396    1.96290832152992    2.47294565138409
H         2.68182320278163    2.80188776671824    0.87085692736165
H         4.79481447467340    1.29257989060273    2.59698552339698
H         5.05406046500230    1.94656464938996    0.98788024829615
H         3.85901583325452   -1.39339387003042    0.23627682727327
H         4.94165086948836    0.30552884666680   -0.96385683448419
H         5.95389554330852   -1.09867719879527   -0.87294401369456
H         6.37670592963116    0.38111413719867    0.15160868705783
H         4.85812174752600   -4.64094861212037    2.62082679498418
H         3.73889506503508   -0.93679638228939    3.82009781141459
H         2.08217080361344   -1.59284348150368    1.71724711422776
H         1.44906303447050   -0.95832219682638    3.91393122004912
H         1.71349780523557   -2.65206766120698    4.39424923773191
H        -0.12997762974955   -2.99996099704749    3.17106405235087
H         2.82628521213031   -3.81891849237837    0.99655509189866
H         1.38252473996320   -5.24967056216513    2.13403795483113
H         1.71885603633324   -4.55119312213662    3.71907481950911
H         2.79937976773380   -5.72396717361180    3.09754866715911
H         7.18333781828695   -1.24820223090423    2.04700098635547
