37
 energy: -56.184596661696 gnorm: 0.126449937135 xtb: 6.4.1 (79825abcba525fcdf90b791dcacef51065a7a4e7)
C         3.70823659570890    2.99881642813616    1.46818074039458
C         3.66934063092226    1.64226584354846    0.78902915108344
O         4.34161866532896    0.67971468806013    1.60392566273402
C         4.46370625605945   -0.61594572104412    0.98997670282991
C         5.63384083378169   -0.67527721150011   -0.00110401185617
C         4.88365214106415   -1.49799187646631    2.18672111552263
O         5.29068627187198   -2.83473592481628    1.83257294321788
C         4.36630899098597   -3.68011074018451    2.54602855513502
O         4.35113904090428   -2.96993888699794    3.79916054166601
C         3.81272559328199   -1.74124930481595    3.26373947717202
C         2.46018135523788   -2.21491888041031    2.67627426595546
C         1.40151567204604   -2.56002400949571    3.72703364602373
O         0.10356122838587   -2.62313512843995    3.15068721795077
C         2.95575293349672   -3.51254966735693    1.97271610468631
C         2.11207504697383   -4.77976383783509    2.05732561740929
C         6.09225457188408   -0.93962360073038    2.95612949794932
O         6.04129664076655   -0.15795438407098    3.90363665386152
H         3.39620517111046    3.75416507671514    0.74014044034293
H         4.70699557218518    3.36415409999762    1.72988105149439
H         3.14118874123316    2.90206080157367    2.39891894213340
H         4.19312748813688    1.85785779152702   -0.14579263798148
H         2.68035608627400    1.21994566073039    0.58306969548509
H         3.54765157226053   -0.92279558442442    0.47176613076026
H         5.35365750550510   -0.30501191691604   -0.99223744063408
H         5.83174198899423   -1.74121437633584   -0.15293659677857
H         6.52939111092541   -0.14127016278502    0.32863509506121
H         4.84969960430775   -4.65589560265138    2.64270439928874
H         3.70034501942230   -1.01213795396306    4.06803185379703
H         2.00881286808493   -1.51701105230829    1.96366312115946
H         1.43694448045001   -1.70817953914612    4.41573734620138
H         1.59440815277946   -3.47727629710748    4.29088769443211
H        -0.56131334709441   -2.86932516308697    3.81569707906563
H         3.19009458324966   -3.27947167443270    0.92651248704547
H         1.07752182358675   -4.51652544426514    1.81750993396793
H         2.14535991844661   -5.23952430493572    3.05217544189646
H         2.44245397236653   -5.51745282968758    1.31988657761834
H         7.05323695669591   -1.32293288346411    2.57809922551842
