37
 energy: -56.174454815710 gnorm: 0.122792914503 xtb: 6.4.1 (79825abcba525fcdf90b791dcacef51065a7a4e7)
C         3.15844676390891    2.07472561645706    2.25247775040909
C         4.17690063814495    1.46235659068589    1.30868479226228
O         3.57418304472320    0.22156770431221    0.93492920021172
C         4.39601477332323   -0.92826045976300    0.66462862974534
C         5.57868082609260   -0.62275426405047   -0.26431868648902
C         4.94070854821592   -1.50505401421542    1.99021344008965
O         5.32320810816086   -2.88394236525655    1.81601985450891
C         4.35056927144532   -3.55911728560391    2.63837220238112
O         4.23640845459953   -2.72350271203125    3.80611770890822
C         3.82969218881422   -1.56031733398272    3.05257639588987
C         2.48549838922621   -2.05074840187314    2.45972345489168
C         1.50354943466480   -1.90144396038659    3.62482016234936
O         0.38942767672224   -2.73143127855731    3.32365951319832
C         2.94584299154648   -3.47573888871699    2.03320741310947
C         2.13577990659156   -4.64129141021471    2.59004495840701
C         6.25390712323797   -0.85113880250216    2.45106987544679
O         6.24632057592342    0.05149263454221    3.28567890976973
H         2.36151392069717    1.34913473572253    2.44319688034502
H         2.89747721459572    3.05942955336972    1.85031955814268
H         3.56076046203665    2.22518623703413    3.25879967223150
H         5.10589531050936    1.32405064660393    1.86775965272973
H         4.31985286751082    2.05223635184083    0.39738320162333
H         3.75963645974052   -1.65786998486836    0.15028650132108
H         5.20855772017059   -0.27893806717256   -1.23526867085951
H         6.20414581404432   -1.47952722557022   -0.53482502058771
H         6.14215332752883    0.17392626833464    0.22934170530474
H         4.58872117429726   -4.57905010602985    2.95172428742165
H         3.85688558454030   -0.67754677797296    3.69374382669565
H         2.10672568779196   -1.43796496334544    1.63531383808231
H         1.26306037951379   -0.83435027644935    3.69325320972328
H         1.96247180280404   -2.20320590203200    4.57076977249991
H        -0.37805064098494   -2.18765106517748    3.56898779357702
H         2.93581283400923   -3.44668324444913    0.93646744873470
H         1.07820352016752   -4.54676824289002    2.32602990240620
H         2.32207765650198   -4.64767052764982    3.67053846126655
H         2.61321007567788   -5.55142171745814    2.21471192313045
H         7.25520391341330   -1.19693239533716    2.14915669589185
