37
 energy: -56.183391859352 gnorm: 0.111911231760 xtb: 6.4.1 (79825abcba525fcdf90b791dcacef51065a7a4e7)
C         2.41898566869542    2.17756673945666    1.27843372197101
C         3.71958906963926    1.55103724507449    0.81058668488845
O         3.91570630459767    0.39884312205169    1.63308624827840
C         4.81405804602942   -0.56867073081307    1.06084882972216
C         6.12126375936473   -0.02381692132853    0.46981273364343
C         5.14135378754323   -1.66546452888261    2.09838342049352
O         5.15527286005629   -2.97195144073652    1.48938376956736
C         4.23437136574482   -3.76475066778359    2.26498719339044
O         4.34057136556362   -3.20990877906931    3.59004795006536
C         4.04548641645232   -1.86312688224828    3.15952936972608
C         2.64720006954202   -2.08721398916475    2.53228583536164
C         1.57922233461198   -1.91917049134050    3.61632957068237
O         0.24834802837933   -2.10948677684103    3.15438016177699
C         2.75214960969137   -3.53047573279781    1.95747100464427
C         1.89814804562256   -4.61339857630693    2.60765741188622
C         6.43271218206868   -1.34682667212197    2.86997116429736
O         6.41836163734780   -0.58243522846609    3.83271364320419
H         2.29289823103876    2.98743810062364    0.55305919376620
H         2.42630741044821    2.51636050799935    2.31989583566421
H         1.56516831680998    1.50884929465947    1.13354953168881
H         4.44942029930678    2.34853068372210    0.97206400808951
H         3.80675164092396    1.22994310271241   -0.23256493334769
H         4.28649392161124   -0.98172562822445    0.19314094019461
H         5.95655542790155    0.57763717845295   -0.42966972174229
H         6.74626077755306   -0.87953993309752    0.19493660202819
H         6.66309231002585    0.64596233462320    1.14339960424799
H         4.61142036079673   -4.78956780508996    2.21252101911803
H         4.08315550046167   -1.19086030192176    4.01845758906652
H         2.47268334295674   -1.42986520964174    1.67434644139238
H         1.63381803287047   -0.87967613240410    3.95937152220344
H         1.90128563008353   -2.55153870979998    4.44872150933392
H        -0.32185370121817   -1.68594270875454    3.81799621172736
H         2.57956159978941   -3.48926710771414    0.87474361382388
H         0.84178502728765   -4.33946749283868    2.68617698615138
H         2.38183957038750   -4.73800825603001    3.58373563042791
H         2.05052407103074   -5.53868210380239    2.04393445873809
H         7.35536401976054   -1.93892285930013    2.76293976460048
