30
 energy: -48.308183013246 gnorm: 0.131760472718 xtb: 6.4.1 (79825abcba525fcdf90b791dcacef51065a7a4e7)
C         0.84657386271174    1.77683402407361    0.15463379162725
C         2.28215894077626    2.15589833151126   -0.01063493954170
N         2.80518172026967    3.23450774429142   -0.47984140925976
O         3.02310271972089    1.10275177450100    0.38328052706653
C         4.44499405326865    1.29553583665662    0.48027523854040
C         4.95671512730867    2.05578382225843    1.70426767274030
C         5.63395340307817    1.01703928132589    2.62200376618980
C         4.70690208702858    0.57488255264965    3.67256199340129
N         3.88143946674810    0.14375237350145    4.36715417003693
C         5.91934381207418   -0.12478879183151    1.67594944270673
C         5.23969903181734    0.02903009854042    0.53224989055169
S         5.01059121875599   -1.13845068644385   -0.70081561804026
C         5.97845164056112   -2.49398526228579   -0.20504128531689
N         6.15140210004388   -3.62565218408614   -0.79145773367541
C         6.74900814297693   -2.34050579341442    1.04554870180754
C         6.73099461525796   -1.31094955561032    1.91245498986191
C         7.56746069378487   -1.15054027195959    3.15350655214100
H         0.47695078407634    1.25090093382131   -0.72919980273800
H         0.19334790945559    2.63881440308448   -0.00641056950108
H         0.59680549516782    1.33609396305997    1.12391444803823
H         2.10913966284950    3.95752713127706   -0.69247050615646
H         4.70281247742091    1.91868454569305   -0.38446386532619
H         4.11138380264307    2.65441977005506    2.06559746740127
H         5.68731699257846    2.75976033879040    1.28525116312844
H         6.50184034021914    1.39955365613782    3.17453965534644
H         5.60872355033954   -3.79931108202246   -1.64691151028299
H         7.29513143551915   -3.24003384609571    1.31243489322449
H         7.86813570578096   -0.09605749243342    3.18058337853104
H         8.42238730272711   -1.81847155178727    3.01264203225843
H         6.97371480779521   -1.49072551664153    4.00767385936902
