30
 energy: -48.307153859213 gnorm: 0.134696427006 xtb: 6.4.1 (79825abcba525fcdf90b791dcacef51065a7a4e7)
C         1.14641854488359    1.84920996646242    1.14934631222342
C         2.48707506990991    2.01954480963150    0.51253068042797
N         2.75236515979469    2.96191622236074   -0.32333001372140
O         3.24897170275343    0.91023860350304    0.55983842514616
C         4.53859943719990    1.18220978109804   -0.01569667334282
C         5.33979276511014    2.10138292463222    0.90690993096895
C         5.61603399343794    1.24602508221470    2.16067833278227
C         4.41027604284409    1.18736528803660    2.99811854142939
N         3.43621229993116    1.18785462296022    3.63130070161399
C         5.80586909999343   -0.08503042076630    1.47329800191503
C         5.28744681852046   -0.08780309155147    0.23844715446960
S         5.27877004039455   -1.40029351985564   -0.86302728086114
C         6.09896663725957   -2.64432373831291    0.03122455282139
N         6.43503985535114   -3.73963888439413   -0.55341693446643
C         6.55286635093712   -2.46944192992367    1.42574239112045
C         6.39195600739788   -1.28757761486737    2.04955458717706
C         6.75883171037126   -1.12001761042864    3.49970681545095
H         0.55602452300891    2.76873435398611    1.13207034079756
H         1.32295918879525    1.48566968526889    2.16537853238379
H         0.61299590755681    1.05794237335067    0.61502719634189
H         2.00349967052118    3.64897163601253   -0.46332305331255
H         4.43086116707831    1.42034863055101   -1.08070405784839
H         4.75722839278492    2.99153550533889    1.17478380418898
H         6.23809957468213    2.35810626367993    0.33065055843308
H         6.56881407305864    1.59036273992637    2.58315034004016
H         6.19637203511160   -3.82501247316486   -1.54951311925844
H         6.84891813511637   -3.43165648372249    1.83209949837095
H         5.81276319441410   -0.95160290093131    4.02853892191514
H         7.43375961434009   -0.31325513353168    3.80050763938075
H         7.33099699932201   -1.98543790922451    3.84832774685677
