30
 energy: -48.303981245218 gnorm: 0.147169613711 xtb: 6.4.1 (79825abcba525fcdf90b791dcacef51065a7a4e7)
C         1.07547006095259    1.45652016645680    0.36505038371600
C         2.44052906870373    1.39288280418125   -0.23866495662637
N         2.93827562987095    1.16727661299538   -1.40419316902291
O         3.34503813232701    1.65396064400737    0.72413640766580
C         4.76031630666821    1.71866971859314    0.47685302477136
C         5.55205666707408    2.39270201478069    1.59793313467325
C         6.02421417095324    1.26080968825483    2.53375817155019
C         5.16450577132704    1.17746639128921    3.72226760460566
N         4.37855122179860    1.16085964803485    4.57767378023960
C         5.85207918238511    0.01325184503187    1.70056743295559
C         5.35659144628511    0.34676428370355    0.50186508550516
S         5.02483620246275   -0.78746604385813   -0.73886548951491
C         5.49973959702164   -2.36074432212486   -0.17381486816414
N         5.35239838565117   -3.49622601864821   -0.75985071986258
C         6.27658876351770   -2.28860071085969    1.08021434382187
C         6.26098387547900   -1.34334871762088    2.03838562981889
C         6.77938852743120   -1.53776761933259    3.43805470718425
H         0.39352837502074    1.05790454794466   -0.39023087812687
H         0.72002215806659    2.46268663463303    0.60366185196596
H         1.20402197286039    0.83316313827382    1.25445549519724
H         2.19967304512787    1.15049394474897   -2.11597071626193
H         4.84571097611895    2.16721393268479   -0.52017967783101
H         4.85802776857254    3.06194849140539    2.12132812342162
H         6.41566079180909    2.97802503975796    1.25658034285814
H         7.07594434294685    1.33201821105834    2.83975472853462
H         4.61721627101952   -3.46989699990201   -1.47767564854408
H         6.61432770721717   -3.26999548785712    1.39868932336646
H         7.87285497506395   -1.59814445551982    3.37674961752150
H         6.51316572575719   -2.56310934620327    3.71132065389187
H         6.44814078947684   -0.70059471800673    4.06037169562832
