30
 energy: -48.309391810796 gnorm: 0.131687789474 xtb: 6.4.1 (79825abcba525fcdf90b791dcacef51065a7a4e7)
C         0.75715214848122    1.55942486733132   -0.08411052916428
C         2.18562451349947    1.99078337042042   -0.01127798491066
N         2.70002993816551    3.14602544017066   -0.25192012460849
O         3.00167596065280    1.00973915215883    0.41871859003125
C         4.39644433642310    1.35171628727965    0.49631717362392
C         4.85786062784505    2.07704049391646    1.76083006095531
C         5.61837023984939    0.99449813326016    2.55430894437585
C         4.90031150475386    0.85305662620679    3.82827340214613
N         4.40808966806046    0.78074102181738    4.87813447164430
C         5.84741358192903   -0.15711102442361    1.60479664332754
C         5.14525931188707    0.05655912839152    0.48455082076341
S         5.23152974192641   -0.96031803479693   -0.89184694364262
C         6.04473220657948   -2.36614353584134   -0.27348092766834
N         6.12863960664525   -3.48059954156134   -0.91020190208737
C         6.73453904737583   -2.37709568786506    1.03240396773077
C         6.66123766621760   -1.33353026688173    1.87941956481621
C         7.28571856247653   -1.54788487663507    3.23208047716102
H         0.70174053684178    0.46892726195575   -0.13029697066120
H         0.11597455495634    2.16759431417019   -0.72805992696398
H         0.44208928650826    1.72432490975287    0.95014495270700
H         2.07149972934892    3.80829444045643   -0.71967247697612
H         4.57256771508084    1.97191402116830   -0.39075315120238
H         3.96764372356969    2.56534846148994    2.17625575133520
H         5.49225256733255    2.90198963566238    1.41162714743548
H         6.61944372096380    1.33857794329020    2.84465692852223
H         5.63496745962556   -3.58202337819242   -1.80600300947982
H         7.20502880485921   -3.34386769852929    1.18280668155947
H         8.34166119165455   -1.83668067897243    3.16385484608109
H         6.91354203011320   -2.39809815124408    3.81130113608476
H         7.25409548376706   -0.64988427904940    3.85694599585334
