30
 energy: -48.311888706785 gnorm: 0.128347185304 xtb: 6.4.1 (79825abcba525fcdf90b791dcacef51065a7a4e7)
C         0.84464852600620    1.59366593175730   -0.24252378103398
C         2.23946117125232    2.08892654000010   -0.03973661441171
N         2.72340478219490    3.27149089076959   -0.19608860168838
O         3.00373093866449    1.12358162755180    0.50550248314973
C         4.42631412786603    1.30568961726081    0.39853338841908
C         5.04608088251437    2.11460864251350    1.53850361546083
C         5.75807465899294    1.09934819285182    2.45621409699587
C         4.87108623492266    0.79939999193221    3.58841634257998
N         4.19628865299631    0.78036181394926    4.53393516121716
C         5.90559637178701   -0.11560994591962    1.57170751399630
C         5.14143828192676   -0.00605901367034    0.47731866952403
S         4.94550744744113   -1.25671707996159   -0.67741845469885
C         5.82940464252435   -2.60405657361783   -0.02670959897407
N         6.06143958777843   -3.70546937836866   -0.64921723325368
C         6.64909718634934   -2.33172502133884    1.17130051980407
C         6.70765227096721   -1.25973928122387    1.98324566583550
C         7.53272535940495   -1.20964244190972    3.24116470269669
H         0.12162985474711    2.09703287395286    0.40420211213116
H         0.98536118872933    0.53820768981134    0.00618780496639
H         0.50979740298122    1.79059987625631   -1.26489004481635
H         2.16027481778600    3.91651521219542   -0.76112929098925
H         4.61784790501791    1.88149918606149   -0.51487589530415
H         4.32213688805636    2.65450987952794    2.16133667355322
H         5.81142672447225    2.79659508384161    1.14597706642198
H         6.68961902939744    1.35001569398271    2.97988554957163
H         5.40791470006038   -3.88345785609296   -1.42231742726002
H         7.21139042212354   -3.25245841024288    1.29256862417634
H         6.92814082808409   -0.80430915687708    4.06168588931037
H         8.41972340272842   -0.57532453383028    3.15313195644511
H         7.77481980344746   -2.22444062869068    3.57197715879334
