30
 energy: -48.308299471088 gnorm: 0.129729622914 xtb: 6.4.1 (79825abcba525fcdf90b791dcacef51065a7a4e7)
C         1.27186694135802    1.41444576606536    0.76745736304836
C         2.58228674217618    1.34992752830321    0.05293278956542
N         2.72352148403274    0.79238132370991   -1.09871854061546
O         3.54717245649835    1.91864304615984    0.80049079738546
C         4.87215240664752    1.69870480407012    0.28628854301294
C         5.83983643321664    2.34894729313987    1.27561421551093
C         5.95960837450775    1.32169517270826    2.42029286726302
C         4.86396815126947    1.59978990927518    3.35882103665938
N         3.91516689831284    1.70705777307488    4.02062905181339
C         5.70693690937262    0.01492142201659    1.70703462500642
C         5.18187248947469    0.25036986805791    0.49769705880564
S         4.82585263992853   -0.95329488076188   -0.66866196816672
C         5.70043247032856   -2.37203715449854   -0.17642171671473
N         6.09158383530314   -3.31241704171874   -0.96201220562906
C         5.95711395945125   -2.42732525198406    1.27696963963625
C         6.05193631834081   -1.35047640747403    2.07899354138012
C         6.62472894790353   -1.56034348115292    3.45503134500956
H         1.17714314766173    0.37116950070353    1.07889065682752
H         0.39882970871827    1.75536456450309    0.20422564347809
H         1.38996388836828    2.07602392751578    1.63030641040854
H         1.88149557557800    0.45216282635377   -1.57588356096264
H         4.96185343474321    1.94696489681730   -0.77807935713361
H         5.56828236841791    3.32161597894301    1.70419710281963
H         6.80807733429059    2.38310213475317    0.75959109014722
H         6.96990864688942    1.28247273357372    2.84760523177383
H         5.75987731106538   -3.05995170818181   -1.90152837248994
H         6.35715442027232   -3.38313870170143    1.60103427490837
H         7.58140276376018   -2.08994933131401    3.36920942827006
H         5.97787150873764   -2.17282226982187    4.09010590490776
H         6.80957548708118   -0.59436454654956    3.93521716228740
