30
 energy: -48.312190746610 gnorm: 0.122271487650 xtb: 6.4.1 (79825abcba525fcdf90b791dcacef51065a7a4e7)
C         0.95829736847031    1.59079532288551    0.07241992150043
C         2.37966417464329    1.60269777885727   -0.38745262223492
N         2.75602580238963    1.66772715791692   -1.61677313078403
O         3.21142616051275    1.41108679095396    0.65405685112845
C         4.61663483507948    1.53516202092904    0.37415941950732
C         5.23151679070776    2.39432878502545    1.47948543577761
C         5.88889993717541    1.36607384319220    2.42310645047147
C         5.03820054117924    1.00844669171201    3.56635300230232
N         4.48626280573916    0.74839640113244    4.55501808745642
C         6.03095134965675    0.07378755149952    1.65495583137327
C         5.24420689170897    0.19238876527686    0.57764766999941
S         4.70199047781393   -1.11927275475502   -0.38229907747654
C         5.72530281749113   -2.44820079569875    0.07245591091577
N         5.74279604621480   -3.57537940268609   -0.54692161088340
C         6.58230690843425   -2.27387365012217    1.26259986305620
C         6.67015495506737   -1.17756968129447    2.03863941635690
C         7.24486817417661   -1.25853199764020    3.42743941614006
H         0.35804703623939    2.21383882896367   -0.59534125380561
H         0.96430926204224    2.12130497100898    1.02854385555007
H         0.62915764374398    0.55152813817393    0.16035052649576
H         1.98739086927546    1.81825893881250   -2.27933123046455
H         4.72055849752970    2.00177091062611   -0.61277238538958
H         4.40742003120153    2.90822492763322    1.98966634270879
H         5.90983453817817    3.06320812154601    0.93412104129422
H         6.85785302844574    1.79922681808880    2.70301591309798
H         5.01790303001306   -3.58793086938630   -1.27550322243158
H         6.99774061834307   -3.16781531996207    1.71747648007347
H         6.43597684987919   -1.39643928402543    4.15527796458228
H         7.81353097922320   -0.35396847587700    3.66251804123172
H         7.98780826031271   -2.06084994856206    3.47421439534955
