30
 energy: -48.308517889280 gnorm: 0.130473884128 xtb: 6.4.1 (79825abcba525fcdf90b791dcacef51065a7a4e7)
C         0.94830871581080    1.82235814941755   -0.85386696159505
C         2.29849790437712    2.23632954598413   -0.36650172148452
N         2.81036915724211    3.41705476241254   -0.33517110295771
O         2.96655049592836    1.17329834921829    0.12027871456955
C         4.30751360027706    1.31950506158807    0.61906753206905
C         4.35600716345856    1.70935521946343    2.09678816650271
C         5.61409569835811    1.01999222799361    2.66412710997864
C         5.40711831018725    0.60265664015546    4.05753690227744
N         5.24293626098424    0.30243216623355    5.16777546509487
C         5.78194791254243   -0.15940833587197    1.73618418432380
C         5.01890276827878    0.00367837824499    0.64770308004979
S         4.78530929488364   -1.19449419728916   -0.55469833036529
C         5.82404525254229   -2.51853482566009   -0.12114998262410
N         5.90813589809731   -3.59608676777170   -0.81848551554800
C         6.69709505795726   -2.27107176604129    1.04411174972676
C         6.72932294222104   -1.25029683387957    1.92093399243766
C         7.71384852253581   -1.18796337408680    3.05778920801004
H         0.07527052908266    2.46040873289846   -0.69548628008798
H         0.75619311810008    0.78895069765070   -0.55251957796134
H         1.14058862317626    1.63925323002171   -1.91482975986476
H         2.16433980385066    4.19747234662185   -0.49653152200577
H         4.73609656311233    2.01720747510715   -0.11037501476920
H         3.45842966557739    1.31702494278164    2.59069190089811
H         4.36938418936510    2.80694099240970    2.10475195200932
H         6.40513571439523    1.77822493037389    2.72877893870384
H         5.18654786219887   -3.76290637111151   -1.53118498864797
H         7.37655524476652   -3.11775254522086    1.05387047460599
H         7.97745499940874   -0.14042820227033    3.24819477241421
H         8.65691921614841   -1.54332752115148    2.63210323928682
H         7.42265345289494   -1.62790197318321    4.01670603364586
