30
 energy: -48.309512898494 gnorm: 0.124232373478 xtb: 6.4.1 (79825abcba525fcdf90b791dcacef51065a7a4e7)
C         0.89337025763840    1.58099089535269    0.17281367378384
C         2.31763171785286    1.58328095478335   -0.27816533673262
N         2.80072010723495    1.81252678422706   -1.44913833538680
O         3.19568574691850    1.49476396714650    0.73892394925321
C         4.61070010671367    1.62984357509323    0.52020836333064
C         5.16764378842003    2.30397095166846    1.77454442509415
C         5.84363754648989    1.19884032163878    2.61216018933096
C         5.01656050058716    0.70284585038084    3.72055198224425
N         4.31461748050772    0.31079241435059    4.55917595557195
C         5.84573360286982   -0.03539549855218    1.74216284672819
C         5.25179333530861    0.27956889946871    0.58386309015584
S         5.13745190348955   -0.81315944404817   -0.73098409794156
C         5.68626572174343   -2.32746315447535   -0.07852134617341
N         5.54828520595990   -3.42120833142308   -0.74120453183023
C         6.40267876564067   -2.34948355028210    1.21281750860574
C         6.51919545233185   -1.29258062047557    2.03817627937136
C         7.30746518683354   -1.37951844018736    3.31750745237678
H         0.84101160717958    1.02902816963062    1.11461215516889
H         0.35186675687552    1.22553847375300   -0.70813873196609
H         0.47543654141391    2.56954272010175    0.38314134334944
H         2.24451106799246    1.97794146175416   -2.29513609012528
H         4.68059196802717    2.09457503901771   -0.47059845874287
H         4.32713101325604    2.80375087813426    2.27180448767467
H         5.79788258841162    3.17874299741437    1.56836543807249
H         6.85905111371558    1.49174248250517    2.90878201697387
H         4.92057161871779   -3.26751545894240   -1.54046215110109
H         6.99242400032081   -3.26068617528724    1.23605400646193
H         6.57899181271600   -1.31853370935521    4.13523598517090
H         7.99656521011233   -0.52987588291056    3.32860668167541
H         7.96636014708112   -2.25328462323934    3.33338353876726
