30
 energy: -48.308294545264 gnorm: 0.129788040322 xtb: 6.4.1 (79825abcba525fcdf90b791dcacef51065a7a4e7)
C         1.12243666395722    1.34865103885075   -0.17948592065699
C         2.56882935765847    1.62890550631922   -0.42710185713510
N         3.08289635015202    1.87299428668201   -1.58177134295563
O         3.26637011649083    1.78718550491578    0.71380529016750
C         4.69589252049870    1.71437965688164    0.57411366905671
C         5.40012270779482    2.35325437362735    1.77156596333380
C         5.93255524981716    1.18023859444131    2.62034811985183
C         5.11732791996913    0.87132603770092    3.80296255853428
N         4.57556458982416    0.66538268703511    4.80983890362430
C         5.91749865079135    0.02076477927197    1.65306745443961
C         5.21160745643456    0.31015088155458    0.55234061165037
S         4.74182291521733   -0.93846269165385   -0.52293572994589
C         5.36167862356732   -2.44868384098134    0.07290913064984
N         5.08678220916712   -3.50246695499149   -0.61151716215738
C         6.18322493973727   -2.41120377051468    1.29967140775220
C         6.39067132288113   -1.30289001183290    2.03482031644822
C         7.36810990368302   -1.43782810087021    3.17149149148417
H         0.77592382846428    0.34608403287712   -0.44250097140174
H         0.62050857010951    2.11817368143003   -0.77240471894281
H         0.95768471185950    1.49539440769934    0.89171163946348
H         2.33145755484023    1.85646959351828   -2.27999006764937
H         4.95102398271312    2.17938454202807   -0.38569716591118
H         4.66272894396773    2.98950205854114    2.27649034958844
H         6.18636921046248    2.98387022188934    1.33673612539442
H         6.88112033609905    1.47503426314513    3.08742497366837
H         4.48463693151280   -3.37100398112642   -1.43407242274231
H         6.58258328968028   -3.40103724626064    1.49809597604901
H         8.15774647477842   -0.71086014986804    2.94551745505490
H         7.90764075795015   -2.38718810620778    3.23854812485209
H         6.91294458708119   -0.96321331805511    4.04637853923658
