30
 energy: -48.311885676349 gnorm: 0.129826358631 xtb: 6.4.1 (79825abcba525fcdf90b791dcacef51065a7a4e7)
C         0.90361132965544    1.50480357389713   -0.19379055488347
C         2.29071930664292    2.05478004154691   -0.12054178052314
N         2.75696044178155    2.94346925969036   -0.92674057740613
O         3.05638694953787    1.32188936739376    0.71006588945510
C         4.47525189511215    1.40979262833536    0.49224941761595
C         5.13786883779233    2.18914914097508    1.62870674515732
C         5.90470723101437    1.15964530945122    2.48425469867649
C         5.04717280964583    0.85273148905595    3.63709383339219
N         4.44692416637706    0.74837144302132    4.62630092846380
C         5.89530349362965   -0.10788741814494    1.66357787302355
C         5.14116355585240    0.07242301254122    0.57161296157627
S         4.75137882400108   -1.21126060539851   -0.49430298432133
C         5.84432720317266   -2.50643126147116   -0.10957327147550
N         6.17761524689220   -3.45749844408654   -0.90885829841791
C         6.57502940349008   -2.41376366870931    1.17057352721628
C         6.61283341331941   -1.33628092554077    1.97645138146812
C         7.24476981394014   -1.39881904518876    3.34113493730799
H         0.46266075312270    1.29675699658331    0.78430344508548
H         0.81941527970151    0.48923055276673   -0.59023988819869
H         0.27195905440882    2.18123278843046   -0.77654260737374
H         1.98613991098303    3.37372442626826   -1.44938664922673
H         4.49730421032474    1.97842096797385   -0.44515868571562
H         4.42248517545989    2.74857009803811    2.24416081957773
H         5.84693833201881    2.88570442992172    1.16290842619572
H         6.87525549133797    1.55158577697613    2.81479929821892
H         5.63339169316155   -3.55398567274751   -1.77544329068795
H         7.28635223917837   -3.20337290719978    1.39230937838122
H         6.58698804216602   -1.13354345108437    4.17780966109352
H         8.12183775230357   -0.74492874231665    3.34847348281071
H         7.72909625924807   -2.36569140008583    3.50979954922983
