30
 energy: -48.315271085895 gnorm: 0.127736222073 xtb: 6.4.1 (79825abcba525fcdf90b791dcacef51065a7a4e7)
C         1.13862007989930    1.56484992575437    0.64209739408196
C         2.47808713234782    1.69829412983639   -0.00592165094778
N         2.80635766069137    1.81955745328756   -1.24472731570376
O         3.45035925230991    1.58505025123923    0.91882020738163
C         4.80150999100680    1.63964834880848    0.42916789893219
C         5.71238394041400    2.29537216210407    1.46759357323062
C         5.98267962695256    1.17644644500108    2.49464125364377
C         4.81206691319348    1.08485887164736    3.37774765515189
N         3.92904336917290    0.94552884249915    4.11975616859376
C         5.88308257630819   -0.03638484084982    1.60057271994959
C         5.29277691307445    0.22651414728108    0.42752143903513
S         4.90721286544157   -0.97137927632072   -0.73538184396522
C         5.57887518504169   -2.44023337751512   -0.09401039482501
N         5.41492112083131   -3.55322201316575   -0.71758196181728
C         6.30871100334712   -2.39346329013185    1.18912670753459
C         6.44428335332807   -1.32208912013757    1.99262815639281
C         6.90242963698504   -1.46521278453892    3.41924415876187
H         0.43692625371953    2.19781877990967    0.09313030662997
H         1.22031853528874    1.84697976707618    1.69536740782276
H         0.89402998534264    0.50736980680769    0.50773774679556
H         2.02169909140046    1.89147575049896   -1.90167586862271
H         4.77672325236808    2.08418457903978   -0.57299552592902
H         5.35768080339755    3.29651227081760    1.74220864587232
H         6.69438265036141    2.48385560774140    1.01472561713077
H         6.92283609189724    1.40417829689638    3.01337521441383
H         5.09651944335097   -3.39515379375610   -1.68199546108401
H         6.73508458302225   -3.37559672119341    1.36870705092906
H         7.50675852315942   -2.37500109400772    3.51996345475904
H         6.06297893098751   -1.53127423002526    4.11769452078947
H         7.51109488758601   -0.57364437758092    3.59950606816655
