30
 energy: -48.313905646047 gnorm: 0.124943221086 xtb: 6.4.1 (79825abcba525fcdf90b791dcacef51065a7a4e7)
C         0.85851901168698    1.42620650688384    0.57408170662209
C         2.24534833369328    1.88742026533332    0.26441359745314
N         2.53494209774116    2.96734690627491   -0.37355170255757
O         3.19731784120497    1.03532976343848    0.68983175995964
C         4.55387586998602    1.36585339349647    0.34508087788529
C         5.23078930050659    2.21129558719283    1.42443658317660
C         5.81288046322069    1.12577109595646    2.35324658230514
C         4.80744773615306    0.95679991935130    3.41114697062199
N         3.96568153002998    0.95391656293009    4.21186007532873
C         5.96061648100461   -0.11862862170461    1.51070192244012
C         5.36620417139969    0.10956596179526    0.33247126080195
S         5.30346435367305   -0.98682927234111   -0.98279820445000
C         6.12081971459600   -2.34292575340003   -0.26659106170798
N         6.29306962455754   -3.44420854402751   -0.90844184284289
C         6.55545040981772   -2.42823408885326    1.14234734796522
C         6.47049276934151   -1.39294535054801    1.99838282239772
C         6.83897063134227   -1.52668782149551    3.45163877056038
H         0.37396881203855    1.09553890498908   -0.34801302974545
H         0.23230051650117    2.20475127044554    1.01834295521768
H         0.89137279847047    0.55609461335139    1.23587242520688
H         1.71111788879883    3.47774579362751   -0.71007713121493
H         4.48108524342238    2.05342207200248   -0.50610022973131
H         4.43490494721551    2.73722503453488    1.96617048150318
H         6.01623522337811    2.87163809645917    1.03461692582779
H         6.73686680379529    1.25165008005567    2.93224977896742
H         5.83784711858405   -3.38969747990939   -1.82836554574125
H         6.77308239423459   -3.43157688566688    1.49529105805113
H         7.50274549800830   -0.76561003879006    3.87969966382386
H         7.40232869196857   -2.44827394976974    3.62536630339330
H         5.96965232961623   -1.59148468410307    4.11341597220205
