30
 energy: -48.308461257279 gnorm: 0.126641771409 xtb: 6.4.1 (79825abcba525fcdf90b791dcacef51065a7a4e7)
C         0.93793134878377    1.94117628872253   -0.14390006170545
C         2.40232045388862    2.18958950306383   -0.30441006480042
N         3.00596971034312    3.08015240540734   -1.01124180901377
O         3.06782966838281    1.27002777133271    0.42001280040823
C         4.50519479736809    1.30774727433815    0.38988880117753
C         5.09435989216110    2.09274447930834    1.56234644280818
C         5.95207263225828    1.10880078157135    2.38457829316779
C         5.14829710742875    0.90562460556954    3.59753492285581
N         4.54025352144939    0.88314054561270    4.58723062869096
C         5.85705423872040   -0.20580752001494    1.64768303860048
C         5.04918243996581   -0.07179582135480    0.58796123563278
S         4.66573357398636   -1.31164394805308   -0.53083104296238
C         5.63836125749772   -2.60146428932275    0.10977727056678
N         5.66215078885628   -3.74178024019968   -0.48484853026838
C         6.51616880580473   -2.47355090652764    1.29061633239623
C         6.58880578406153   -1.38771938412612    2.08278493562457
C         7.50740188954864   -1.40893462267669    3.27498750535247
H         0.36711038112435    2.29376028170717   -1.00659155501156
H         0.56973009023433    2.55957816383273    0.67929891998034
H         0.74681177122818    0.91270738255726    0.17526455091934
H         2.35274217472803    3.75837064420690   -1.41837387953939
H         4.73287561918177    1.77854331576676   -0.57399447696112
H         4.35450783167895    2.52932092867910    2.24464347550444
H         5.63337995776748    2.95461080619249    1.14812343964157
H         6.95842606465905    1.34906893150432    2.75113656835518
H         5.15870281705196   -3.82003189084727   -1.37752732350697
H         7.07407355214723   -3.39469034768215    1.42799951976164
H         8.56158216906244   -1.20459353416471    3.05133318887479
H         7.41414348308360   -2.31420777499733    3.88215959754519
H         7.48923790850418   -0.59025462140407    4.00113841536001
