30
 energy: -48.306591209388 gnorm: 0.139423023179 xtb: 6.4.1 (79825abcba525fcdf90b791dcacef51065a7a4e7)
C         0.85368786042131    1.88505649350475   -0.26068291945365
C         2.33270170542605    1.93775953369919   -0.46476250652314
N         3.04019289848480    2.17393109744776   -1.51394553590165
O         3.02420785302549    1.53875606349488    0.61962684513776
C         4.45832269163170    1.43129984550214    0.60883178038982
C         5.00153389141655    2.08798268777434    1.87835227657405
C         6.00824432379120    1.11023735312221    2.51900018038156
C         5.53591179276902    1.02038188795168    3.90731838890041
N         5.24708442245353    0.92845293067706    5.02885660015588
C         5.82867070591909   -0.14635684981168    1.70109893147871
C         4.98235326140592    0.03171791828278    0.67852255473182
S         4.58408010620363   -1.16851725819434   -0.47766367880013
C         5.75406124902736   -2.41446149204784   -0.16335932754749
N         5.85109840072485   -3.41048601222894   -0.97143432507003
C         6.48359456553627   -2.40810561699206    1.12078613143639
C         6.40797770059106   -1.43661883361298    2.04940491600032
C         7.23590389629123   -1.41396528805388    3.30624256459525
H         0.27519733339569    1.97853540055796   -1.18317902636931
H         0.55360252440436    2.59438663815766    0.51549305770057
H         0.61939977449074    0.87863937191514    0.09761123942001
H         2.38333894129382    2.46480225209601   -2.24632492253740
H         4.78301554182190    1.91128997307769   -0.32215826988826
H         4.12204888243192    2.11489966686708    2.53355522485810
H         5.38756560615764    3.10498281135847    1.73129050839178
H         7.04385447665237    1.41496446507280    2.71773113914686
H         5.32759877925358   -3.27234527745462   -1.84511841675417
H         6.93025741350652   -3.35221971033959    1.41704716030503
H         8.15075244978373   -0.81011833783473    3.26759574446427
H         7.49101697592118   -2.45106940722906    3.54332254224996
H         6.86154599170291   -0.99855763511472    4.24706914704639
