30
 energy: -48.314762422788 gnorm: 0.122679341597 xtb: 6.4.1 (79825abcba525fcdf90b791dcacef51065a7a4e7)
C         1.02406562089390    1.75951559891757    0.25898988004738
C         2.43493423583510    1.45327378145074   -0.12516339312251
N         2.89052434938199    1.07562544398827   -1.26837168690039
O         3.27747598505783    1.76912057933355    0.87665943568529
C         4.67389913829320    1.63868167157192    0.55832502417159
C         5.51723072628344    2.35192698987140    1.61571142317959
C         5.92270757148366    1.17839572643293    2.53129565719927
C         5.20434961286882    1.12130558223890    3.81164797603123
N         4.57844460994583    1.21670765944045    4.78574321096549
C         5.85750844848424   -0.03895263929281    1.64020073193707
C         5.06815413775456    0.19569991831984    0.58403586824961
S         4.87507081199053   -0.86949350852079   -0.74413368737251
C         5.70915053603973   -2.31014468723804   -0.24527966890848
N         5.69343493574488   -3.30072451680489   -1.06562769260282
C         6.26060653930530   -2.39123125835855    1.12242280844176
C         6.27173548491624   -1.38407543452740    2.01536772575878
C         6.91366048223987   -1.60044291046007    3.35951550635314
H         0.84018356967829    2.80394360400026   -0.00510516910557
H         0.78234888809906    1.60078421794493    1.31351677846255
H         0.38571931675842    1.11633265653623   -0.35335865796428
H         2.16191281985189    0.85848315261482   -1.95715117251349
H         4.80034452937005    1.99798924476734   -0.47000763989050
H         4.95672713900403    3.15382741833908    2.11199838467451
H         6.38892479488983    2.78582389026930    1.10893748027325
H         6.98866215193206    1.24025334557173    2.78576658649414
H         5.04264784150277   -3.35013954497409   -1.85966353908493
H         6.64914936967218   -3.38055223488867    1.34357478764715
H         6.16063332483268   -1.27298773296754    4.08669897085487
H         7.82458152134011   -1.03627345730554    3.58044592242040
H         7.09417304819495   -2.67341466642227    3.47787440694580
