30
 energy: -48.304320242054 gnorm: 0.134568124444 xtb: 6.4.1 (79825abcba525fcdf90b791dcacef51065a7a4e7)
C         0.96824759949331    1.76579356562197    0.49489197228222
C         2.30928862584187    1.99298493012201   -0.12308947936929
N         2.57271351851811    3.07342492754859   -0.77144320020339
O         3.13410268135717    0.99342716218285    0.24276677366137
C         4.55226043042911    1.20927743104495    0.13987893002436
C         5.04421481765137    2.18635782833409    1.20818961830593
C         5.66624517000973    1.24963174302295    2.26436381268451
C         4.66420023198150    1.07192254604193    3.32404522164318
N         3.86276731550944    0.85624932670991    4.13700918322604
C         5.96109598026023   -0.03216406672909    1.52254151186990
C         5.39126627859615   -0.01759026760761    0.31063900964060
S         5.40371495667340   -1.32718466563247   -0.79424101870122
C         5.82072493250860   -2.68578745856069    0.20591952077060
N         5.67277240684956   -3.94616416989062   -0.00390595377887
C         6.61045761504553   -2.39246238489336    1.41900289884126
C         6.67457699609030   -1.19558482401970    2.03154666257405
C         7.33963851658988   -1.05939111748650    3.37496024717400
H         0.21308950555212    2.45442456802002    0.10770693213246
H         1.05701993959352    1.93010929366877    1.57228206907893
H         0.62088170393572    0.76155533341589    0.23608018895663
H         1.67066116927997    3.55444888256208   -0.85723496939363
H         4.68015119015054    1.64615260521605   -0.85778955782319
H         4.17934813723351    2.73346275143378    1.60339981600919
H         5.83035230984089    2.78307533095319    0.72771805417365
H         6.56471036612116    1.65873655353976    2.74419132618570
H         5.09299065743576   -4.29175289673135   -0.77907054148789
H         6.96487357876764   -3.24028312173823    1.99711961080733
H         6.96152465784144   -0.45123000175758    4.20576858876648
H         8.36637815302411   -0.69384748055706    3.27978631760435
H         7.46804609195169   -2.05992496233595    3.79958418061559
