30
 energy: -48.308044297881 gnorm: 0.140135286722 xtb: 6.4.1 (79825abcba525fcdf90b791dcacef51065a7a4e7)
C         0.97197645241436    1.81853145767177    0.77935365772897
C         2.35878401733798    2.16534581134625    0.34531147087730
N         2.81478940174859    3.33076632525727    0.04371581805353
O         3.15785163643066    1.08701821563698    0.23583399125203
C         4.57182369817518    1.23500525565722    0.01873591368213
C         5.30509792427580    2.10681023613511    1.03866631914718
C         5.66839713432382    1.15250659817983    2.19503988423460
C         4.75523033667923    1.30440345295978    3.33594007288447
N         4.03407877723026    1.17825965631677    4.23802007084717
C         5.77588200347896   -0.15911472340597    1.45454366842792
C         5.22000396499025   -0.09547874892478    0.23775430609450
S         5.22119673347995   -1.38639756075742   -0.88895762807043
C         6.02722100560520   -2.71650736369310   -0.11361710824711
N         6.28591835965898   -3.88131738891348   -0.59399148343592
C         6.39763690149587   -2.47458316707027    1.29547960921039
C         6.39717175919844   -1.34525751548553    2.02791437056174
C         6.83455746275647   -1.37725399896877    3.46780527550668
H         0.80138277722871    0.85762302993779    0.28747821321816
H         0.28428774245067    2.45477476288229    0.21550234372969
H         0.89536597155339    1.87678555441485    1.86879311370838
H         2.04833853043283    4.01218694929161    0.01799208320705
H         4.59799474906607    1.57265159036319   -1.02427342066007
H         4.69083831766106    2.97420372049976    1.31037018692179
H         6.25183127286874    2.45197513198857    0.60335717112089
H         6.61580405920123    1.46545511080163    2.65255965331447
H         6.00981156773050   -3.91155739417982   -1.58359200299916
H         6.81739613440564   -3.37154611035750    1.74032719940690
H         7.87516057257869   -1.67663240879564    3.64270619508090
H         6.20671867737230   -2.14220221430668    3.93422486758972
H         6.50585185970070   -0.49722687217682    4.02938064241537
