30
 energy: -48.304651925616 gnorm: 0.121123493028 xtb: 6.4.1 (79825abcba525fcdf90b791dcacef51065a7a4e7)
C         0.99858885904306    2.09479546508437   -0.28342472196647
C         2.48060173018252    2.24294512042284   -0.16681619862851
N         3.16186186643557    3.27590674570139   -0.52175381441324
O         2.96637218738809    1.14294497988887    0.43924609569526
C         4.40438696101688    1.16272667302562    0.43082970728717
C         5.01986133694949    2.05598549319577    1.50845343980945
C         5.81451097310038    1.12410399928420    2.44654206954345
C         5.11747174272821    1.06793776455249    3.73866472644304
N         4.37603584007509    0.90785361522875    4.61864536592255
C         5.80772185603649   -0.19733715013552    1.71579928621617
C         5.06954984170580   -0.16680511923183    0.59875147118298
S         4.76301269965222   -1.38541986587307   -0.56613711000861
C         5.68897431396458   -2.71822411351631    0.05535136246360
N         5.70079020917421   -3.83910098368171   -0.57549059491817
C         6.53692569221374   -2.46551628146450    1.23789346264992
C         6.62400593343490   -1.36705750409436    2.01096681597234
C         7.53956274458934   -1.30761704515353    3.20421372330673
H         0.82907063721230    1.58719129257028   -1.23630993784841
H         0.51080014882812    3.06301359027497   -0.42578146266750
H         0.66293106137195    1.41545948185920    0.50523077595878
H         2.49128610066210    3.96210422183671   -0.88493955018648
H         4.64911977997204    1.52784134646877   -0.57383715131425
H         4.16313652841003    2.56469209220944    1.96752801697274
H         5.68868162967614    2.79278620293714    1.04505190359829
H         6.83662719544470    1.51132657089843    2.54742815009293
H         4.86742107014329   -4.20798867312197   -1.05075508707307
H         7.20096228533910   -3.31653875662904    1.35384934648830
H         8.51584666299246   -0.94233913452111    2.86287180115515
H         7.60578201107994   -2.32092962077207    3.61126058486392
H         7.19673642052592   -0.54486987801473    3.91029363168133
