30
 energy: -48.309309940525 gnorm: 0.133647456663 xtb: 6.4.1 (79825abcba525fcdf90b791dcacef51065a7a4e7)
C         0.78811719299760    1.85216294209954   -0.65635377189958
C         2.27784604122493    1.95964664063447   -0.62374653808652
N         3.03560639466724    2.36291108370216   -1.58306027241901
O         2.84773279508649    1.22667691533187    0.35158377430563
C         4.25846842929429    1.29925125483729    0.62159594909182
C         4.53371386652780    1.82523902346459    2.03069841676400
C         5.82125422441899    1.14805814851358    2.54406703563983
C         5.77561259587083    1.22115256703925    4.01075491207467
N         5.55538563013086    1.43856718597021    5.13055445517763
C         5.79866877405153   -0.12279233615154    1.72879606058337
C         4.97331268047193   -0.01372669244396    0.67974031575169
S         4.71066751361262   -1.26765787809122   -0.45807620298497
C         5.68263991965441   -2.58236875970631    0.13084223963387
N         5.87507372702842   -3.69549847908357   -0.48428182114544
C         6.63822618115600   -2.36769484311844    1.23630984088562
C         6.66753048406332   -1.25990297669584    2.00036187380711
C         7.50385708049741   -1.16891531905576    3.24851839284322
H         0.41998626590655    2.31945889700304   -1.57314315309543
H         0.31331163748878    2.43296054809590    0.13918593861519
H         0.47859043830036    0.81089748656035   -0.52946614742248
H         2.51625684030025    2.85812609833050   -2.31619112177258
H         4.79543006891596    1.89145992199869   -0.12908338781070
H         3.64546457877347    1.55234820050456    2.61383911586254
H         4.61741094748071    2.91361755194100    1.91509636153750
H         6.74180626679939    1.61216728202862    2.16720160268527
H         5.12437509787910   -3.84211386801635   -1.17087783547511
H         7.23027994256071   -3.23406211288412    1.51471550662020
H         6.81547004298083   -1.16477447664834    4.10243799660262
H         8.10240640272412   -0.25508125481333    3.30785238450449
H         8.16365424419751   -2.03962164004025    3.31485217997061
