30
 energy: -48.306456725640 gnorm: 0.137467276613 xtb: 6.4.1 (79825abcba525fcdf90b791dcacef51065a7a4e7)
C         0.95801768560562    1.16511000995386    0.46093083357488
C         2.36374184962308    1.50636487661257    0.08757748107515
N         3.01961077884898    1.61362723385400   -1.01489091013028
O         3.14432893586545    1.64015922259256    1.17664481142744
C         4.55163302181261    1.73804956572272    0.89689239710921
C         5.24450579502858    2.14230587103452    2.19862093823951
C         5.74824662494079    0.84047660943681    2.85540652932536
C         4.84285921340887    0.60072733436001    3.98739301150909
N         3.96369619919354    0.42406320748400    4.72602845858732
C         5.72486589971602   -0.14469307943677    1.71123340152923
C         5.13605279981287    0.38653707336727    0.63201149576928
S         5.30001211356030   -0.20174371864222   -0.96892436153329
C         5.95002608351406   -1.79780964683350   -0.74514876685203
N         6.23621853182008   -2.65543287813252   -1.66004904578826
C         6.23327344734433   -2.26746762427046    0.62615758492545
C         6.29225382290882   -1.48621131625552    1.72068817269169
C         6.81545489160149   -2.03242842086998    3.02204260222190
H         0.54720000675138    1.88235454648742    1.17589780549668
H         0.93449494861851    0.16907278084775    0.91149284728721
H         0.34513008857158    1.06857042064570   -0.43972999849236
H         2.44430550503821    1.62330838912202   -1.86422761150573
H         4.73597063727035    2.59203559286074    0.23410589199014
H         4.50848143203144    2.69667118333270    2.79398347150582
H         6.08147460293223    2.80476153641298    1.94254946944781
H         6.66354482231241    1.01279573552654    3.43624757573087
H         6.09202648695289   -2.27173869004877   -2.60262319683303
H         6.68800802726769   -3.24837252074319    0.52781249002697
H         7.51756340143295   -2.85081173773557    2.82113223928375
H         6.01558615766861   -2.49838294097229    3.60511287819463
H         7.42224639826714   -1.36858386000161    3.64572239061642
