30
 energy: -48.310909429447 gnorm: 0.126307796180 xtb: 6.4.1 (79825abcba525fcdf90b791dcacef51065a7a4e7)
C         0.90031574378245    1.48084479039702   -0.02170596950845
C         2.29325649733377    2.01871629842843   -0.06985491188140
N         2.67824313841285    3.10127914605883   -0.65032780094212
O         3.12309748783037    1.16654727008406    0.56137930175251
C         4.51314444438823    1.33460850663615    0.23293824477362
C         5.29173942363761    2.22414367266187    1.20273719220178
C         5.85911495281960    1.30926856406278    2.30771230619150
C         4.88564024529601    1.07148825167508    3.38214557632763
N         4.04755940172669    0.60231978522319    4.03576742891527
C         5.96706798837824   -0.00876109765201    1.57875290866053
C         5.26045060028932    0.05564597039315    0.44289659822690
S         4.96012643022888   -1.28187979225570   -0.58510270645343
C         5.72775269777017   -2.58672883219492    0.26820783626937
N         5.67091404486640   -3.81542467626933   -0.10801289356829
C         6.54576920219577   -2.36824230440311    1.47833230965866
C         6.67747689288399   -1.17463569246384    2.08643872503974
C         7.52725605451518   -1.18178579025444    3.32879128065864
H         1.00716250745695    0.50522001771456    0.45905252621101
H         0.50281834393301    1.49260880105784   -1.04028686075851
H         0.26986620317806    2.10635130305705    0.61658550803049
H         1.83339362455479    3.53972428344037   -1.03299981950482
H         4.54242256999578    1.69451091012408   -0.80251886417843
H         4.70937085965831    3.02087600320992    1.68187571417170
H         6.05501842575528    2.75592500738007    0.62002745703893
H         6.73316232364347    1.70201953127544    2.84308953228561
H         5.19132583877767   -4.08358255296294   -0.97665844399409
H         7.12746232672625   -3.25602449173799    1.70659862612329
H         6.79703383524627   -1.48635704208681    4.08845200456229
H         7.89527261064532   -0.17425551400278    3.54401457720006
H         8.25402320615702   -1.99882387477591    3.28274520274045
