30
 energy: -48.313415168145 gnorm: 0.125207436453 xtb: 6.4.1 (79825abcba525fcdf90b791dcacef51065a7a4e7)
C         0.87062318099499    1.51308008229034   -0.59823675032623
C         2.31615576049639    1.88938061296078   -0.57100608689714
N         2.95327386526718    2.59282165535007   -1.44069398601448
O         3.00762492402052    1.18923789665675    0.34820844317241
C         4.41689875522132    1.43933711629779    0.48873024035815
C         4.63467031252071    2.09943111119566    1.85065700407400
C         5.82175494417704    1.32727044981228    2.46260435379811
C         5.60217352332560    1.04645960528991    3.88792141859489
N         5.38786403557255    0.61649399909008    4.94571211605212
C         5.86835804417609    0.02582475120212    1.69820566641380
C         5.13346035936680    0.12942344973260    0.58338775737222
S         4.81278409116644   -1.17086598371134   -0.48542779813009
C         5.57455306318920   -2.55404860729186    0.24019882259401
N         5.48262093215943   -3.74276984892658   -0.24245690006441
C         6.48576706609112   -2.28271722996169    1.37040107624058
C         6.66155167582277   -1.14076658198269    2.06097026730304
C         7.62739031829595   -1.14332861042654    3.21542468020232
H         0.75248405802336    0.89892334168791   -1.49447517123642
H         0.20519321536717    2.37697869429932   -0.51741745440761
H         0.70095971727966    0.79104523256770    0.20551757673621
H         2.38524128673591    3.10465857669294   -2.12465646399129
H         4.68849777167277    2.10024064444969   -0.34313449903676
H         3.68074746540248    1.91767928959367    2.36105565597114
H         4.63357589913680    3.19442481980481    1.92762764173024
H         6.77052368249207    1.87346943995096    2.38294549982701
H         4.76128685764733   -3.79443954729500   -0.97284447045952
H         6.85395786102130   -3.23784175331817    1.73206721505662
H         7.08601079055606   -1.32919349019890    4.15107153696911
H         8.03218202783083   -0.13107708313505    3.30688543572147
H         8.32168343743698   -1.97575786827289    3.06416133190217
