30
 energy: -48.306894059659 gnorm: 0.126758409600 xtb: 6.4.1 (79825abcba525fcdf90b791dcacef51065a7a4e7)
C         0.95855391610395    2.09735516745290    0.43625083236127
C         2.38609106022631    2.07159381495315   -0.00350145897228
N         2.98058634331082    3.04126418516243   -0.60634517072246
O         3.15624378674051    1.12063862254766    0.55848942741055
C         4.53904228612591    1.29336664209691    0.20298697774416
C         5.35565365778867    2.13135242451526    1.18732362683075
C         5.90809148846676    1.14243599725849    2.23457631300178
C         5.00111859086835    1.15567501674538    3.39035492269473
N         4.24652512231854    1.23017356014971    4.27055871961096
C         5.83800270932276   -0.19834436761043    1.54346604702592
C         5.18100059639730   -0.04548078367356    0.38648424770313
S         4.96884886946308   -1.34907964128885   -0.70510815961772
C         5.76972578363794   -2.69515520006528    0.04768446891247
N         5.93514201562981   -3.82697833408995   -0.54060118338941
C         6.30442635771283   -2.60074457636686    1.42117292131027
C         6.37691470923782   -1.43568680727026    2.09141383934519
C         6.99957276958829   -1.53028557765443    3.45851428080508
H         0.35391158057918    1.19383978907015    0.32464319040912
H         0.43197638628396    2.80184716581459   -0.21340810606826
H         1.06742548385976    2.41983540169056    1.47562300416705
H         2.39903035086435    3.78599467241641   -1.00585967875748
H         4.49099580505145    1.68618952462509   -0.81972514393743
H         4.70947785514729    2.88967751225508    1.64657210458335
H         6.15379250477485    2.61392535465802    0.60850188928274
H         6.96177063071268    1.36021595982449    2.45176988953237
H         5.83977007708078   -3.59781987646077   -1.53802245183315
H         6.61900879421247   -3.59521748561408    1.72232260253277
H         6.34256759926189   -1.10719877741366    4.22819883179591
H         7.89941728406130   -0.90833129836727    3.47660394092908
H         7.26062751913211   -2.58282283007242    3.60642544746618
