30
 energy: -48.312037743043 gnorm: 0.125335792220 xtb: 6.4.1 (79825abcba525fcdf90b791dcacef51065a7a4e7)
C         1.14465941503091    1.94914229059296    0.66431735367013
C         2.42477031299442    1.51822398858248    0.02593382644827
N         2.63901238432229    0.86639549573767   -1.06325199755641
O         3.48752160633833    1.69875845084529    0.83293553103814
C         4.84176029140670    1.64846180673073    0.35142074608810
C         5.65067938313418    2.32441582588620    1.45899873988079
C         5.87556966891655    1.18235146301062    2.47141900325349
C         4.89971707013389    1.23847969126704    3.56830578799830
N         3.93829592803727    1.21152577280896    4.21996745561396
C         5.73152065864951   -0.07421568423314    1.64647858267344
C         5.16976605978036    0.19284312369498    0.46041901531510
S         5.05029281853272   -0.88437384624347   -0.86671400863741
C         5.71930979024137   -2.33977842263683   -0.19274532378250
N         5.99718179014622   -3.38159578926903   -0.89407967156153
C         5.97380787502903   -2.46746563632684    1.25646663092020
C         6.16832732048409   -1.40210985594589    2.05585157582823
C         6.84430583371165   -1.56464124383461    3.39086176142483
H         0.32938249375812    1.61712530642487    0.01664697240355
H         1.18547084669166    3.01393720525182    0.90966572510780
H         1.11233376104722    1.42059428952487    1.62125679459484
H         1.78408036992122    0.69404927713674   -1.60346560795658
H         4.97644170804003    2.13388284785313   -0.62263556312351
H         5.10464326974512    3.15778665625202    1.91817941442776
H         6.61700998246205    2.66877796259241    1.06841360672946
H         6.91980857342393    1.31878495782155    2.78092167784967
H         5.82594303264652   -3.31675602875682   -1.90548052171777
H         6.29802016823550   -3.48553970562026    1.44892749144732
H         7.61959792483791   -0.79583405917113    3.49540949742028
H         7.20835799759926   -2.57881898754140    3.58002843355442
H         6.15137357141556   -1.26509940203614    4.18331461600250
