30
 energy: -48.311275203141 gnorm: 0.125615119598 xtb: 6.4.1 (79825abcba525fcdf90b791dcacef51065a7a4e7)
C         1.05013146019945    1.47546131259742   -0.31810815623864
C         2.52585972996991    1.54033016099506   -0.54154970778355
N         3.06949523754910    1.66866632838977   -1.70133247579407
O         3.19683139246219    1.47300331235473    0.62401834048370
C         4.62293505751768    1.65891257508732    0.62785629410251
C         5.18751225745372    2.36539986370568    1.86078826040382
C         6.07651804697863    1.28793285934141    2.51547521177487
C         5.47826416385174    1.04918872715772    3.83596483521248
N         5.01335542842611    0.78549327304039    4.86749023034501
C         5.94393618987999    0.03962726776854    1.67619395809724
C         5.17369657427612    0.26807892836391    0.60466854362790
S         4.79016823546783   -0.89280018948864   -0.59583885191639
C         5.38390748400081   -2.39903391687526    0.03563057488709
N         5.00623722973413   -3.54309389453366   -0.41487811537686
C         6.21096841066701   -2.34294756475653    1.25796977667785
C         6.44758181234274   -1.27656381408813    2.04452990710369
C         7.27031705730831   -1.41388269143097    3.29747278127578
H         0.65869837461379    2.39159915033526    0.13118045952293
H         0.92694488459766    0.67695609808266    0.41868496035857
H         0.55044087989536    1.33835004368785   -1.28125448701872
H         2.32033520494093    1.87419549549425   -2.37137704150112
H         4.80206788894707    2.16552143269296   -0.32808160374567
H         4.40983772931122    2.57043261997292    2.60690699636212
H         5.79491216070947    3.17983106473367    1.44521151368800
H         7.06712225876685    1.68725455925359    2.76862806564103
H         4.32550826225530   -3.51553129643546   -1.18449292892852
H         6.54194279957934   -3.32970382784023    1.56683485679842
H         8.30623649867534   -1.15664077892276    3.04494544542898
H         7.23423297818357   -2.42606677434034    3.71106174228694
H         6.85536370642481   -0.79523861478746    4.09931764324337
