30
 energy: -48.306498361673 gnorm: 0.132520403432 xtb: 6.4.1 (79825abcba525fcdf90b791dcacef51065a7a4e7)
C         1.03379328234010    1.62948630599137   -0.87938297317225
C         2.20172784920975    2.16210866780871   -0.11508572142669
N         2.72290194995580    3.33916282322465   -0.10990125830932
O         2.86292535528334    1.08251835474810    0.34381226997182
C         4.25809759643358    1.32471999388009    0.59517141646592
C         4.55493673684240    1.93465546799293    1.96552107133498
C         5.63095009644323    1.05973273375742    2.64123320925014
C         5.26339474722050    0.50833990826139    3.95251819228939
N         4.85865962520460    0.12801401448703    4.97294053086007
C         5.93804817055843    0.00042609193593    1.60982735614793
C         5.08637976944007    0.07893157817922    0.57923346353533
S         4.93622759898814   -1.10498290693283   -0.65030024613279
C         5.77284936572078   -2.51932664816752   -0.08486609159910
N         5.78573204846970   -3.66101534280850   -0.67718956788097
C         6.66473484887690   -2.28328232200477    1.06843870615868
C         6.72395870264396   -1.19928755093908    1.86423072142715
C         7.75040851960487   -1.20458624609902    2.96513412947292
H         0.12531016272919    2.22627021309152   -0.76582220405202
H         0.70809141207397    0.64465786262388   -0.53343379298167
H         1.27847518765697    1.69229001186019   -1.94349175076996
H         2.01831889435368    4.05927383465885   -0.30340981594594
H         4.60247499629242    2.05503300382450   -0.14685653638883
H         3.70431703928195    2.04007407890359    2.65024168161964
H         4.87801435644941    2.98157515415284    1.89831337200174
H         6.51734948541867    1.68437635910203    2.81140183741222
H         5.20805748537656   -3.71305429612701   -1.52574282726827
H         7.43172808651674   -3.02116157767868    1.28264699680395
H         8.68510925829339   -0.66735717079236    2.76316386199574
H         7.90460160900396   -2.22762427666163    3.32079153482555
H         7.40071037982166   -0.68115054221791    3.86044873369143
