30
 energy: -48.307361770927 gnorm: 0.136201045991 xtb: 6.4.1 (79825abcba525fcdf90b791dcacef51065a7a4e7)
C         1.12644884417508    1.59157487810759    0.95978695269871
C         2.35409183719701    2.02002821409421    0.22410465508703
N         2.66180554167354    3.19188550280791   -0.21083048781098
O         3.25572520763277    1.02327294123384    0.30669367042506
C         4.63674870593304    1.21635863730634   -0.04521635336773
C         5.27362827127056    2.21509414876817    0.92168837143551
C         5.76804380852969    1.26598562158935    2.03282640490096
C         4.75598741281647    1.25655768277333    3.09783921590232
N         3.84881705308374    1.16779479018865    3.81817466297562
C         5.84568406541188   -0.14471637503348    1.49978822155556
C         5.30439296547126   -0.08331665665305    0.27632593016947
S         5.18015041604054   -1.41263707676067   -0.79764955642982
C         6.08811251810584   -2.65409158185606    0.01130996926571
N         6.39208131255435   -3.76866714073091   -0.55419019493446
C         6.43223149553519   -2.48608572980774    1.43771971140116
C         6.33570867539531   -1.35044248060570    2.15384456979560
C         6.70352334697927   -1.22408337419921    3.60792894196358
H         0.29048224456662    2.26862901430097    0.76705345842255
H         1.40445722786076    1.62967132484104    2.01662639475848
H         0.84834477397762    0.56782202255545    0.69383724369341
H         1.76520107156020    3.68233156914182   -0.30030558825620
H         4.58021763635792    1.67977945691477   -1.03748836635656
H         4.57273048473028    2.97443726363257    1.28999476307200
H         6.11957978196510    2.79625698148699    0.53239072171376
H         6.72640478481859    1.58692037899170    2.46106234465202
H         6.11158292103324   -3.69407975252414   -1.54020031857956
H         6.85734790759393   -3.31780492513138    1.99102688422373
H         5.66184313872586   -1.19613061829579    3.95026437001000
H         7.17638883627712   -0.24900519085415    3.75791320071120
H         7.21306258487662   -2.09391816428646    4.03409694201727
