30
 energy: -48.309191640179 gnorm: 0.130648581663 xtb: 6.4.1 (79825abcba525fcdf90b791dcacef51065a7a4e7)
C         1.09235939604898    1.64731962567422    0.42281291501156
C         2.46239705780258    1.91818422379078   -0.10778787244748
N         2.75428374897226    2.31775511827506   -1.29616957286620
O         3.36444373968755    1.63980271099969    0.85247264874266
C         4.78313220215445    1.63033914598742    0.61671400625317
C         5.50043477593682    2.18264035075979    1.84896128317377
C         5.91519771753563    0.98951605850458    2.73457269721764
C         4.89168711805308    0.60159027826141    3.71464359775386
N         3.95889906222064    0.41014601541387    4.38020772646206
C         5.90103560021545   -0.17659434060878    1.77528973025258
C         5.32872876090973    0.23743266402456    0.63745297554711
S         4.86994053068492   -0.68134104099706   -0.73415942668825
C         5.62527809823845   -2.21134727031150   -0.40466576071092
N         5.53345141309824   -3.26099055195749   -1.14242112661718
C         6.29149839628946   -2.37372878828445    0.90341349527481
C         6.46803135087105   -1.51038522179675    1.92091585600455
C         7.13987640983177   -1.90049508754772    3.21012263427200
H         0.93860732631729    0.56965692855426    0.32590021654478
H         0.45004802363966    2.26975715251454   -0.20619998850274
H         1.11319270942774    1.95702324460521    1.47152196537137
H         1.87922436400325    2.60438396027788   -1.74845011948740
H         5.08742836447949    2.18982208952240   -0.27600154432619
H         4.79028443822551    2.74155937499605    2.47089801509685
H         6.33022163831285    2.84785483945926    1.57715196642742
H         6.87604850430436    1.11083936634703    3.25118408131653
H         5.16110392303085   -2.91885790994406   -2.03727373593843
H         6.80163866578077   -3.32505612223434    1.01901115980020
H         7.51598258868742   -1.03459348654539    3.76854102586511
H         7.98236122181130   -2.58212342412344    3.06020045582128
H         6.42344547327832   -2.42060095419743    3.85361200069847
