30
 energy: -48.308591146189 gnorm: 0.137393195904 xtb: 6.4.1 (79825abcba525fcdf90b791dcacef51065a7a4e7)
C         1.12675169978148    1.12142686557811    0.51790270135660
C         2.42164349537219    1.68215102910254    0.02723816743369
N         2.70525288876872    2.29547642086277   -1.06843673667562
O         3.37651017107371    1.42648783005574    0.94165094950687
C         4.74554238112444    1.78782661593533    0.68959182541825
C         5.21652856717863    2.25254281414108    2.06807066133011
C         5.71273548004421    0.97627629169844    2.77856628203633
C         4.62122938956270    0.58507237160729    3.68088186089186
N         3.78636970984654    0.20626087948747    4.39448630553751
C         5.82366005488971   -0.07861019472654    1.70378800428082
C         5.36844754637519    0.43440312944317    0.55347276150688
S         5.25258633092863   -0.48557510831716   -0.88741890079015
C         5.89966655916000   -2.05859717318653   -0.53117616709175
N         5.94038473790529   -2.99486601883703   -1.41220336652255
C         6.16820785447363   -2.35161823856749    0.89125591472971
C         6.39485170049135   -1.41270604857645    1.82875992729930
C         6.98434242361265   -1.84984377607801    3.14292396871783
H         0.89555315890343    1.57273060079233    1.48602502549300
H         1.25784942404965    0.03856937819356    0.59460118733101
H         0.32781945990936    1.37775666488243   -0.18362658755268
H         1.95387152033558    2.31880484621031   -1.76652307729061
H         4.92747555430179    2.54907262774035   -0.07849883997965
H         4.41815705680769    2.76687271926133    2.61723091900030
H         5.98192609646607    3.02414431556121    1.91401016159988
H         6.60582399325112    1.18108503287257    3.38295628685398
H         5.77802895922959   -2.60129638479956   -2.34772576091567
H         6.47367486640257   -3.37932896721571    1.06193184868686
H         7.94019764292085   -1.35548447450957    3.35510848346133
H         7.27736524154414   -2.90387215798177    3.13689447995371
H         6.49770758573354   -1.59708970300997    4.09011134500151
