30
 energy: -48.314659922138 gnorm: 0.118344204950 xtb: 6.4.1 (79825abcba525fcdf90b791dcacef51065a7a4e7)
C         1.03183914459084    2.25185660549512    0.11470166202288
C         2.48820082398171    2.22947056138492   -0.21758971807793
N         3.15953934274642    2.79301439336382   -1.16036687381093
O         3.11439415172011    1.47718170018469    0.70719575250088
C         4.54736862502742    1.40269040058643    0.61032501793672
C         5.17868280774353    2.09401182167075    1.81925435495494
C         5.78208833958792    0.92894222341728    2.63067050355377
C         5.05579307585649    0.68299492627664    3.88390814617596
N         4.64257187917854    0.32910155204784    4.91042062214207
C         5.79085574562122   -0.25413701749392    1.69232901279448
C         5.05011363565243   -0.00638978298461    0.60441876677461
S         4.72311618046546   -1.03945068326439   -0.72291329958248
C         5.57021280638104   -2.48048006398775   -0.24764310363924
N         5.59620592694663   -3.56875962329253   -0.93279871217689
C         6.41375042520359   -2.46933055445628    0.96463111386272
C         6.45698056115817   -1.52824189320762    1.92604704857418
C         7.34306254042575   -1.63406960084195    3.13818361564476
H         0.46631432800406    1.97028971856501   -0.77708891415886
H         0.84015710018300    3.27815844404773    0.43968187574254
H         0.78479582304410    1.62100645407754    0.97326949133481
H         2.73029513352754    3.37338047794031   -1.88931634595783
H         4.83807194797709    2.00273080425275   -0.26030781613376
H         4.49461226621325    2.57810818384188    2.52721446334715
H         5.93495619231229    2.82226670702091    1.49889161316837
H         6.82150850112756    1.12200875641526    2.92591959444148
H         4.88602225712449   -3.72730733828463   -1.65871908433404
H         7.02859883331364   -3.36182373356486    1.02824771598754
H         7.20841551277016   -0.78448336928422    3.81873192510161
H         8.36539149079006   -1.62434364570787    2.74879502868327
H         7.16874057377071   -2.59092283638282    3.64008574196870
