30
 energy: -48.313360375057 gnorm: 0.135002265701 xtb: 6.4.1 (79825abcba525fcdf90b791dcacef51065a7a4e7)
C         1.08828317440803    1.43056127694695   -0.11973873332258
C         2.53878883801188    1.54043916851588   -0.46013290451589
N         3.15478312246824    1.62876605708826   -1.58701143002628
O         3.23257669629032    1.76283653930592    0.67233456680046
C         4.65577160372992    1.71665025697665    0.47051352374558
C         5.34298048584097    2.36856003012722    1.67082621107973
C         5.98042441437337    1.27032192008419    2.54685117741747
C         5.25951318209779    1.06946691316177    3.81118640977565
N         4.70922908077144    0.89011536114779    4.81852969581192
C         5.80088209362858    0.01103135546919    1.73310080508630
C         5.12375835970297    0.30301278447737    0.61512215820203
S         4.70170541238469   -0.92033609275774   -0.50792778526620
C         5.40619851644649   -2.42543135113619    0.00040056505269
N         5.26221367242848   -3.57852358836401   -0.55106366667354
C         6.16326033175550   -2.37959197835110    1.26769877779463
C         6.39779075894770   -1.28679258991395    2.01778013308783
C         7.26673831628700   -1.44591968984898    3.23647793442688
H         0.71420625046397    2.20627100737004    0.55311305414518
H         0.91396661956977    0.44390280818544    0.31817497004047
H         0.39392789780281    1.58743935961942   -0.95004051448883
H         2.54103649581192    1.43635904437016   -2.38622187356773
H         4.88933689452183    2.13237302814770   -0.51699860440957
H         4.71083310181450    2.96103976569810    2.34377994008395
H         6.16247241420251    3.04592055524927    1.39778306951814
H         6.98674587351702    1.54840409530983    2.88571445905758
H         4.67398276882313   -3.63868665220730   -1.39179156302261
H         6.67850139496917   -3.31034405774916    1.48416315339679
H         8.33408884877484   -1.38149864689766    2.99217215246646
H         7.28597534148584   -2.48056208736782    3.59147026829780
H         6.98733055205970   -0.68998505713985    3.97698863573177
