30
 energy: -48.311991132433 gnorm: 0.131661457785 xtb: 6.4.1 (79825abcba525fcdf90b791dcacef51065a7a4e7)
C         0.93222745361994    1.59921650014679   -0.73076928654739
C         2.26107148026355    2.10730748322819   -0.27478120833855
N         2.66982909964571    3.32704368812441   -0.32239009951774
O         2.99117870318510    1.12089869510723    0.27949841374871
C         4.36457530460620    1.40106265197318    0.60142788363867
C         4.66612540458885    1.97876448996940    1.98465637876431
C         5.74250169496604    1.07160922914619    2.61581789549777
C         5.33482692504370    0.57061963291521    3.93544285254977
N         5.03763872233437    0.22345217050286    5.00355988432866
C         5.82063721040855   -0.14453804742160    1.72412373224102
C         5.02577235364646    0.06055874872135    0.66594079936659
S         4.70051365316750   -1.10381854049158   -0.54830161677977
C         5.87470051854638   -2.34009615775643   -0.21226168190848
N         6.20127356064728   -3.32099526960120   -0.97754144974556
C         6.57260493277257   -2.32832326888136    1.08930638018498
C         6.61779692370846   -1.33325403886778    1.99464165991897
C         7.47374785668768   -1.36640276330651    3.23232690840598
H         0.28936804098986    2.37434222581592   -1.15538740140353
H         0.47932700928998    0.96686216998150    0.03777400779045
H         1.20006906448547    0.86536181027072   -1.49618368194961
H         2.04682289270236    3.87045953136757   -0.92984808203257
H         4.68593553606524    2.05100972677226   -0.22128395713178
H         3.70632998004628    2.08081919290403    2.50608408331282
H         5.07536494638663    2.97327029636111    1.76461534547112
H         6.69894655967364    1.58482885737168    2.77909598397437
H         5.65598068870655   -3.42133269094740   -1.84301627455679
H         7.26735020481717   -3.15034390518218    1.23157616357851
H         8.27969248335489   -0.64360523518066    3.05600464590949
H         8.11027173896068   -2.25264999736974    3.15309495962391
H         7.02625182994887   -1.22430635874784    4.22097137055042
