30
 energy: -48.316889512668 gnorm: 0.120666252346 xtb: 6.4.1 (79825abcba525fcdf90b791dcacef51065a7a4e7)
C         0.97375101400421    1.54828603785859   -0.20568079196107
C         2.46597388750628    1.51124628920169   -0.26738148077186
N         3.17811036598736    1.21824297179774   -1.29894170704758
O         3.09745218681027    1.75596014127408    0.89650641901356
C         4.53127999812324    1.73811187149645    0.78619823844608
C         5.16060420734133    2.27134743875658    2.07367787563133
C         5.87110022122617    1.10774428525694    2.79555360330305
C         5.20568959968777    0.68958723191618    4.03691281606719
N         4.50591537338812    0.33480082983693    4.89374576692251
C         5.71565198914417    0.00464669216594    1.77611778458772
C         5.03383724985618    0.33364056258724    0.67134737605103
S         4.69792591609477   -0.69450209437520   -0.65757646951305
C         5.71077810425461   -2.08253050416366   -0.39771579700742
N         5.68561828275422   -3.20405642621292   -1.02701122778670
C         6.46431145818967   -2.14188822074964    0.87112333975723
C         6.43677934606584   -1.25627940131344    1.88442293912726
C         7.30881594437112   -1.52541911790201    3.08139061379471
H         0.66213387167625    0.85819657373971    0.58239277508837
H         0.56540342434633    1.34009215858842   -1.19843310817077
H         0.60604183572298    2.54033424725781    0.07139562557616
H         2.59199960353026    0.94945975132460   -2.09685928903244
H         4.83960935220629    2.31891268003558   -0.09139039149162
H         4.35303268444141    2.66892405783431    2.70079057861183
H         5.87303637795924    3.08357575664729    1.87960979864788
H         6.92669138594697    1.34304043268352    2.98318067653695
H         5.08789227380810   -3.25229482699596   -1.86178979897014
H         7.14279892459500   -2.96784163585343    1.06108474249996
H         6.87271410072362   -1.21954337418911    4.04020642323737
H         8.25632931960935   -1.02875457414177    2.85244247401099
H         7.65096752331968   -2.56413117745261    3.12465168415266
