30
 energy: -48.312959293376 gnorm: 0.126272395769 xtb: 6.4.1 (79825abcba525fcdf90b791dcacef51065a7a4e7)
C         0.96314994204021    1.41651715909559   -0.18932667290660
C         2.43887137763123    1.54229759448596   -0.38511622399024
N         3.07992422575186    1.42079667882141   -1.49479842216335
O         3.08648719150646    1.68249697575669    0.78715620371379
C         4.51918761848004    1.65845184207552    0.66411164881398
C         5.13816778442337    2.30099195472724    1.90588405198600
C         5.85146543631715    1.16647297624569    2.67005327095974
C         5.13448778395184    0.81118165697009    3.90225067117906
N         4.59854311612261    0.68498345482692    4.92526454678284
C         5.87335843200760    0.01813480943362    1.68970741766261
C         5.05882982564836    0.26310191313288    0.65522192823471
S         4.58570934419848   -0.91347085054502   -0.49707398773330
C         5.64754654199746   -2.23844194606263   -0.12697487686123
N         5.87169549638042   -3.13773508158214   -1.01888028287124
C         6.46267010823274   -2.30348715248841    1.10291589138914
C         6.48974716196491   -1.27207885571392    1.96738152461291
C         7.38508588845736   -1.33240952984807    3.17582862832074
H         0.45631434360451    1.91273471433319   -1.02075584785072
H         0.83489299730224    1.92403982005026    0.77068401028403
H         0.68031682436439    0.36010909598174   -0.17714216138798
H         2.45394121349228    1.20883887813056   -2.27943966000845
H         4.81045139350986    2.21575441700619   -0.23429673537942
H         4.47118370843505    2.89834991469364    2.53976493907188
H         5.97303874438204    2.90531847826888    1.52810528917504
H         6.86709258232805    1.52169981732593    2.88720826978460
H         5.21612908909747   -3.14681112059660   -1.81046660197084
H         7.05235744094379   -3.21058352878382    1.19277482347899
H         6.84628959736013   -0.93341609934528    4.04391580556840
H         8.33341119209879   -0.78816574171999    3.21260259951787
H         7.49231157672415   -2.41276698075262    3.31436526812492
