30
 energy: -48.306587084775 gnorm: 0.140948882232 xtb: 6.4.1 (79825abcba525fcdf90b791dcacef51065a7a4e7)
C         1.07074063021109    1.88838110103406    0.39384786900263
C         2.43495723643026    1.48080138502810   -0.05858980388118
N         2.87574797864445    0.97696794195317   -1.15811751648671
O         3.35882262620773    1.88228087536264    0.83503859431167
C         4.73423397175640    1.69399110721471    0.45935356509495
C         5.73577755524360    2.29908976413434    1.44360912765673
C         6.00572795414612    1.17989639249571    2.47045596719471
C         5.07996731516287    1.19286211868636    3.61124448703681
N         4.26279793170174    1.07702877394207    4.42888554636056
C         5.78229414140256   -0.04748780495029    1.61966620945475
C         5.05237186418747    0.23395280201236    0.53263786833954
S         4.70553824767600   -0.97883553346998   -0.62701864510024
C         5.71724753651586   -2.31916870033732   -0.17983714011881
N         6.01317640959664   -3.27293289801422   -0.99053196693586
C         6.41726992194424   -2.34215107625485    1.12044324176934
C         6.41186042235081   -1.30951305352679    1.98384727310734
C         6.65004159717958   -1.58070647632927    3.44512735692435
H         0.25578037675730    1.44769395375886   -0.18582728311383
H         0.97585918192966    2.96534021326329    0.23012191489402
H         0.92021045040255    1.66215883533154    1.45323692972208
H         2.04576883084281    0.69471951306047   -1.69095253020360
H         4.80549088404524    2.00576697482495   -0.58958715488229
H         5.18168906572012    3.10587545719640    1.93918159077559
H         6.62568530096507    2.58775433849822    0.86943683253318
H         7.00926664814435    1.12138153330318    2.91128133656487
H         5.44858421054024   -3.37203473895843   -1.84368673629899
H         6.85637716693832   -3.29291721135260    1.40655195446446
H         7.21460087958968   -0.76550524555715    3.91394748752872
H         7.33895217421262   -2.43055157911158    3.43879997628188
H         5.76468630871117   -1.91351828385095    3.99580355767034
