30
 energy: -48.310530163436 gnorm: 0.140949520320 xtb: 6.4.1 (79825abcba525fcdf90b791dcacef51065a7a4e7)
C         0.94762367737574    1.39644190882965    0.83465375860201
C         2.27811231437626    1.95256543382973    0.44422497875642
N         2.56455768203077    3.16955753349750    0.13765510433888
O         3.28748433341017    1.06125596371878    0.43971846350690
C         4.66762186257069    1.35076993669154    0.15731677186653
C         5.33775107341544    2.15623146487522    1.27093767662892
C         5.61512327229230    1.11122130785555    2.37134664186007
C         4.45380686232354    1.08668392131578    3.27098068540870
N         3.49309682714039    1.16360131598033    3.91970250619853
C         5.80421701132267   -0.14678733733067    1.55777695753459
C         5.29987358627402    0.00543137004682    0.32647962239286
S         5.27164105386317   -1.13528867066953   -0.95176645889625
C         6.11999438935744   -2.50125398412060   -0.29263417818763
N         6.52409111318708   -3.50185473397282   -0.99261283417072
C         6.60496922852711   -2.39100384177633    1.09802498401186
C         6.50471721289179   -1.35978414273370    1.95731104187506
C         6.76378102314934   -1.55902465018897    3.42659821069387
H         0.06933268830873    1.95673074902937    0.50439626490711
H         0.98648491612005    1.40776446292458    1.92736195874817
H         0.90163623543264    0.34001126253389    0.55540391488867
H         1.77295040290981    3.82181424114011    0.15667656296185
H         4.74592217529064    1.87145570976980   -0.80461553094899
H         4.84150814505715    3.04672227974294    1.67625031766584
H         6.33961917034088    2.39571285672518    0.89166753278702
H         6.50147673108811    1.41163223001114    2.94490720378705
H         6.18786402184570   -3.33263431251422   -1.94905121856321
H         7.31316463544539   -3.14999805294405    1.41585618080467
H         7.09916844815440   -0.60207544327463    3.84473220771399
H         7.63344714993744   -2.22244087132012    3.44743714827873
H         5.88016238235391   -1.96089852184350    3.93214489776395
