30
 energy: -48.307929280519 gnorm: 0.129588972555 xtb: 6.4.1 (79825abcba525fcdf90b791dcacef51065a7a4e7)
C         0.97547261759212    1.92269778198721   -0.09775507590888
C         2.42439463078583    2.28083535101122   -0.16310415664915
N         3.00014665382090    3.31649560716637   -0.66611831921736
O         3.09598928970944    1.17979060124219    0.22412423165438
C         4.53146485969900    1.26786714679173    0.22309929704698
C         4.95913310064566    2.10104268058507    1.43178094886116
C         5.76336707046001    1.15233951918085    2.34449747745580
C         5.36397559615498    0.94221895841514    3.74268741301398
N         4.82287345314797    0.65293777011601    4.72921917753917
C         5.71130591604427   -0.17303225322295    1.62275159779198
C         5.13113410144326   -0.08876895905723    0.41862274481705
S         4.83360094880572   -1.40381734292637   -0.63876747805141
C         5.66117662109621   -2.72104301083711    0.13586471275600
N         5.86921726447021   -3.76780205087687   -0.58210516687534
C         6.37630637549174   -2.54011037125785    1.41537297948497
C         6.41182939692002   -1.36734092142486    2.07506001281625
C         7.25899233459749   -1.25760092995138    3.31436937610983
H         0.73199689164434    1.34492480608125   -0.99290121928114
H         0.38677122328689    2.82399942272140    0.09391032840807
H         0.85558517543833    1.30025706776579    0.79349998817369
H         2.41031017810718    4.13730255858352   -0.84165063234460
H         4.74242577828131    1.79543855362354   -0.71483580876170
H         4.14258207087135    2.58293062501827    1.98363028483874
H         5.60949011482427    2.94252428916372    1.15996978857853
H         6.79223412541324    1.52713643422897    2.42066014953349
H         5.21502775303664   -3.73293171243718   -1.37411446801495
H         6.95293304964704   -3.40315023614974    1.73363933910397
H         7.95845002236142   -2.09813116546970    3.40004555147077
H         6.55859572158584   -1.28695053333269    4.15428466860802
H         7.79177813216923   -0.32014744833053    3.50193861650613
