30
 energy: -48.311079278462 gnorm: 0.131380783832 xtb: 6.4.1 (79825abcba525fcdf90b791dcacef51065a7a4e7)
C         1.05416672536230    1.30270404252216    0.70358633836833
C         2.43593065740079    1.52942687366786    0.18278578611918
N         2.91779581938837    1.44392768657346   -1.00784499694802
O         3.28720379573362    1.65099597858756    1.21904818030966
C         4.68776658903513    1.77516695133481    0.91679981075873
C         5.39268994206862    2.24419673295192    2.19001898871375
C         5.77274700663769    0.87960315546362    2.80102017174851
C         4.61201457241050    0.55298358581160    3.64043614810738
N         3.74510360852186    0.14268509469184    4.29605844131885
C         5.90303471607734   -0.06741031323479    1.63207687379081
C         5.29975116075711    0.45796302326342    0.55799225752450
S         5.05552723898850   -0.34122810844666   -0.93786887944137
C         6.03592830454778   -1.75261727335271   -0.67938414181865
N         6.34561987463798   -2.48221485041639   -1.69242148132266
C         6.48372149504547   -2.21516804795040    0.64983240721304
C         6.35560207166416   -1.44707969264599    1.74776808533036
C         6.59963435919250   -2.03742889071545    3.11068836327073
H         0.70917760746664    2.23252286766793    1.16272479199406
H         1.13513300596494    0.44056292764366    1.37127396460441
H         0.37599783776125    1.03040044559907   -0.11009587333537
H         2.21072157456452    1.19123082868977   -1.70686790305242
H         4.82797904726813    2.39864753623172    0.02563719843758
H         4.88662235766794    2.93103234443626    2.87970131546314
H         6.29821560283056    2.79035046907937    1.89561071649755
H         6.64248418268603    0.97454589411460    3.46388065302421
H         5.94830432108025   -2.35288988683546   -2.63150294160896
H         6.87817228626895   -3.22307742514584    0.73443068668891
H         7.39928193929682   -1.43331094645433    3.55642124952005
H         6.88011216311131   -3.09421524762992    3.14822906062772
H         5.61282504262764   -1.94202635537183    3.57433445607857
