30
 energy: -48.316271292709 gnorm: 0.119726243575 xtb: 6.4.1 (79825abcba525fcdf90b791dcacef51065a7a4e7)
C         0.82952658805545    1.70984941474496    0.03140680844504
C         2.28319233918194    2.02005706110062   -0.11871022456685
N         2.85249696236959    2.99991641887920   -0.72934407094614
O         3.05938990124512    1.06530181170958    0.42832223815542
C         4.47365286588532    1.31460449138802    0.35049489065787
C         4.84257174950008    2.10232563274849    1.60802708050572
C         5.64566527780347    1.11957012079083    2.48501843082664
C         5.04405593962897    0.99036048486949    3.81917373025896
N         4.63685939144859    0.98078712256209    4.90720836927016
C         5.78567789558027   -0.11096779625594    1.62106778232937
C         5.18661145139827    0.00163476809890    0.42856368785294
S         5.01458182780404   -1.20606621954165   -0.77468876668878
C         5.99152587787556   -2.50224658630282   -0.15378879695221
N         6.14438928024137   -3.66805716772089   -0.67531024431473
C         6.55314777643085   -2.36380839226403    1.20514619791782
C         6.50539184488797   -1.30695434020970    2.03738171444048
C         7.28927694926110   -1.39731064442914    3.31916777479286
H         0.51397763192681    1.82891511199728    1.07094558846555
H         0.49253061892415    0.72371147193823   -0.29967517728442
H         0.23935939492484    2.34001576015417   -0.63996052190092
H         2.20287808171003    3.66596094367620   -1.16157400297762
H         4.63132020456570    1.88931225678280   -0.57005405880901
H         3.89771844917519    2.48690667188205    2.01158492711242
H         5.46641573442311    2.95054391347153    1.29773481996274
H         6.69292434261073    1.39498251494895    2.66456610883028
H         5.86520687744002   -3.80247105081713   -1.65533508184042
H         7.11186872841488   -3.27640807294343    1.38851014844411
H         6.62895900160178   -1.38779925001396    4.19493160485047
H         7.93328471704797   -0.51974492709194    3.42874386880176
H         7.78730858385550   -2.37091855611682    3.27541740334170
