30
 energy: -48.306049025019 gnorm: 0.133453102779 xtb: 6.4.1 (79825abcba525fcdf90b791dcacef51065a7a4e7)
C         1.14456193396142    1.03863595085162    0.53889017829875
C         2.38687593507596    1.66051299557121   -0.01050303144942
N         2.70001308592630    2.20971701058893   -1.13185306388852
O         3.31085624771059    1.48157587848785    0.95257882784296
C         4.70645343873852    1.74185860489235    0.72255687078834
C         5.24393145982606    2.25562053243118    2.05865533018151
C         5.76078806549203    0.98500609616470    2.76454467226449
C         4.70372426247269    0.53829642952597    3.68196825639295
N         3.82150201890680    0.35266924921858    4.41473465194976
C         5.81716261033634   -0.11486794213107    1.73142458734962
C         5.32176356924793    0.38444438553797    0.59173460655005
S         5.30577108465827   -0.37506270798222   -0.94411883074220
C         5.91112110184438   -1.95931872953926   -0.56503526925567
N         5.91278810544404   -2.97557460476360   -1.35350687257849
C         6.25575543809637   -2.29151679768247    0.83216207783613
C         6.35266783906813   -1.46053958782194    1.88663928709582
C         6.86926714039628   -1.91155754587281    3.22653622799351
H         1.04092653018257    1.50426213424131    1.52217071886337
H         1.32545058497636   -0.03972800627298    0.53113899195954
H         0.28430370590839    1.34740727513293   -0.06174039333939
H         1.87534245630941    2.33766533241706   -1.72850228649396
H         4.79063323486225    2.49074221332442   -0.07408956571681
H         4.51853278963553    2.73549489700962    2.72725586205255
H         6.09660586046952    2.89972148689283    1.80762302697509
H         6.67575798145791    1.17743308869527    3.33956022948954
H         5.69437228752985   -2.88674826685232   -2.35393829138062
H         6.67483055988639   -3.28819836976494    0.73402136197949
H         7.83606562505436   -1.43798533921692    3.43654252815254
H         6.97180095839741   -3.00035741076612    3.25613736826245
H         6.40768371278364   -1.56805990959158    4.15756368730253
