30
 energy: -48.303039908537 gnorm: 0.133439189802 xtb: 6.4.1 (79825abcba525fcdf90b791dcacef51065a7a4e7)
C         1.01507311457737    2.14824045726069   -0.37308871811051
C         2.49920115396403    1.98363404291581   -0.41974396387623
N         3.27039431956039    2.31259689758216   -1.39655016126189
O         2.91053325940666    1.52095494792831    0.77608993154394
C         4.32662800100537    1.52550182878016    1.02709521675298
C         4.51829854925450    1.68358878524167    2.53582444000395
C         5.68068189439704    0.76522540836634    2.96635332663580
C         5.18498162216338   -0.09794590183310    4.04700861383418
N         4.63889645201378   -0.76835796808257    4.82293304098445
C         5.92089281885539   -0.12075262258924    1.76736230025714
C         4.96078908503988    0.17816777976465    0.88278705571489
S         4.59327350646284   -0.65887607130036   -0.56643419228937
C         5.71641347768660   -1.97814401471403   -0.43186571078894
N         5.82759363959109   -2.91882409960841   -1.30205309895238
C         6.64632348447989   -2.12592232033723    0.70599084280526
C         6.76282644779058   -1.30937849556730    1.76972026997179
C         7.81872760651033   -1.48567035797559    2.82783629485322
H         0.71883057155388    2.76448361268492   -1.22565741791980
H         0.82097480597485    2.79226281811103    0.48900794236138
H         0.56831820606176    1.15049792241852   -0.34051700544623
H         2.68844522367141    2.61714706122789   -2.18460292632536
H         4.82264007998924    2.37177812169791    0.53684342152323
H         3.60634542714504    1.34945939276361    3.04593063289137
H         4.70225001388191    2.68848126612665    2.93743347673705
H         6.47955854443707    1.42486421648066    3.32900141880032
H         5.04227295963651   -2.87414906709795   -1.96366791115489
H         7.33926878085423   -2.96148330505631    0.68883661697409
H         8.65621412881437   -0.77966626036128    2.77085316717036
H         8.35325598629338   -2.43989144470283    2.85265627372730
H         7.41362632320882   -1.24875754408210    3.81658663176418
