30
 energy: -48.307943766190 gnorm: 0.123281400118 xtb: 6.4.1 (79825abcba525fcdf90b791dcacef51065a7a4e7)
C         0.97902535992509    1.92037478349934    0.22240140956312
C         2.43498111886971    2.02240630601508   -0.09648794360173
N         3.04033970240099    2.44833813702378   -1.14968729297569
O         3.15450743577564    1.45949348887326    0.89280260824932
C         4.57494159463730    1.56181458524997    0.69218893278147
C         5.29598296276761    2.06772157748432    1.94204908902355
C         5.74732254984301    0.84831377189504    2.77224101066477
C         4.82361359577377    0.39313479437782    3.82017859138182
N         4.17640266865696   -0.00046218316775    4.70104151853742
C         5.88798022467510   -0.18820540317407    1.68316743308511
C         5.15643872178279    0.18498002328840    0.62524228388223
S         4.73813558504511   -0.77119691395051   -0.73369130151588
C         5.77131623647337   -2.12820222130003   -0.40038314683472
N         5.81495921945312   -3.10715276040254   -1.23358017125791
C         6.59299115839236   -2.30787886614238    0.81364124535532
C         6.59334535291234   -1.45138906334744    1.85203527158941
C         7.28252526679063   -1.66785320206122    3.17256165770924
H         0.74312155239243    1.81458667844437    1.28426153652624
H         0.59352171782197    1.10683866900891   -0.39823982284466
H         0.45600681437641    2.82731871203328   -0.09389804111872
H         2.40928882318865    2.74865222799113   -1.90070589976310
H         4.81052150813397    2.03208331062936   -0.27005210084327
H         4.70888673295683    2.72651306174284    2.59383208134450
H         6.15700663985211    2.65888964656402    1.60426898402547
H         6.68895282935322    0.95234972649553    3.32663242556609
H         5.07544459718213   -3.08274223568515   -1.94700910137418
H         7.26729620186662   -3.15871172593914    0.80856534205973
H         6.88140752980540   -2.56934746041476    3.65160780120471
H         7.16773675047365   -0.81544813883627    3.84865611260944
H         8.31590640804578   -2.01076647609368    3.06122493226368
