30
 energy: -48.307959272402 gnorm: 0.129850682484 xtb: 6.4.1 (79825abcba525fcdf90b791dcacef51065a7a4e7)
C         1.05820811349043    1.48693844150342    0.75002517853572
C         2.38698770983352    2.05561011719788    0.37204986895549
N         2.73832506214236    3.27265608612866    0.14299314103727
O         3.24081353749100    1.02395184382166    0.51328521251958
C         4.58440435964177    1.39600727442861    0.16017457699462
C         5.13384441524920    2.20934768181324    1.33260195809489
C         5.56247095758039    1.15175762561512    2.37070793305962
C         4.44868307590661    0.81164889818568    3.26647683825035
N         3.50891337866991    0.56683616543503    3.90414423710252
C         5.79096415213963   -0.05995484456053    1.49905341779744
C         5.34281872198925    0.10941640693549    0.24841157543059
S         5.37421276506410   -1.10531900026803   -0.95963835822753
C         6.13294110583663   -2.49402838488844   -0.24142005691844
N         6.28581774864739   -3.64194257666208   -0.80123062992095
C         6.54352137174739   -2.38483667867595    1.17307264713232
C         6.47493623172157   -1.27240598613663    1.92781173680923
C         7.01613888775366   -1.38421691353626    3.32788802817431
H         0.11615804030261    2.03834330863719    0.69633168569452
H         1.13195855662452    1.32414782675619    1.82877894806901
H         0.88160099042441    0.57487899444870    0.17287829912409
H         1.89436945645876    3.83804592696320   -0.00024085317179
H         4.52629397409228    1.97920620588135   -0.76668062114884
H         4.31202990318568    2.82304508140831    1.72183926949263
H         6.01815983224184    2.74025722214868    0.95702485053262
H         6.51866683532420    1.40944411558979    2.84412954323641
H         6.03470514136605   -3.69710422879818   -1.79639807148827
H         6.95827681007751   -3.30571261584162    1.57131258363795
H         7.57139591657828   -0.47375403781839    3.58444119975251
H         7.41455679889407   -2.38388613309128    3.52486297533869
H         6.19430767137940   -1.32772693167263    4.04848798584948
