30
 energy: -48.316705352683 gnorm: 0.119639371469 xtb: 6.4.1 (79825abcba525fcdf90b791dcacef51065a7a4e7)
C         0.78846409388598    1.66844302350979    0.03459336986700
C         2.22141008854148    2.07400435727965   -0.08412402394678
N         2.74351385213304    3.14011915120725   -0.58203237811738
O         3.04761251160089    1.10565996846187    0.35517482973710
C         4.46869240441681    1.31286798015256    0.27806769304127
C         5.14000619229411    2.22295931971148    1.30717633602908
C         5.89668415286238    1.27490774156505    2.26033856629919
C         5.11834736741950    1.04690143442638    3.48541179969323
N         4.64535449318156    0.64179951756743    4.46617186774500
C         5.92556696874671   -0.07537861347582    1.58496411600721
C         5.11310618049836   -0.01510954237671    0.52199592483821
S         5.02543639800469   -1.27179989340087   -0.63946692191996
C         5.87657511955604   -2.62858374969550    0.03486281153816
N         5.94955987902000   -3.79217705661173   -0.50845119383435
C         6.41031571851072   -2.43766876422800    1.39866678255552
C         6.48012581669455   -1.30817853626972    2.12751224688774
C         7.21481786026680   -1.22510915698666    3.43859688522472
H         0.74771470615021    0.74458510473876   -0.54782803677440
H         0.13523253490216    2.43535814486179   -0.39058816424998
H         0.43991650934390    1.33150871590167    1.01496620098833
H         2.04360056873488    3.78320510908223   -0.96804346890023
H         4.66144452643265    1.75712346262073   -0.70582362591927
H         4.34679118444903    2.78210784702887    1.81871537211728
H         5.89916293983228    2.86819548364814    0.84642887794472
H         6.92665691044784    1.56304610321613    2.50726646777640
H         5.51948381727122   -4.01451899224135   -1.41512492835277
H         6.84503756285499   -3.32299421661046    1.85236875917866
H         6.49425087754049   -1.24333559642605    4.26535175212032
H         7.74142307996505   -0.27272386177309    3.55050643593718
H         7.98519147178970   -1.99205272362293    3.56581354080039
