30
 energy: -48.312891678218 gnorm: 0.121937053353 xtb: 6.4.1 (79825abcba525fcdf90b791dcacef51065a7a4e7)
C         0.94195101943227    2.13867054749377   -0.72494378909245
C         2.39931751261136    2.24529239768359   -0.41410186058668
N         3.12755835787470    3.29781597434326   -0.55181604608449
O         2.92715255483590    1.10111175907720    0.06079347912778
C         4.31738198113138    1.15257749653228    0.42543310229770
C         4.71100625446506    1.94412991657922    1.67302984673283
C         5.81396382393440    1.15578788367873    2.40915679163826
C         5.45761586123819    0.93917832839071    3.81794908919950
N         5.22646052421443    1.02351927013190    4.95336702035271
C         5.84626461227375   -0.18396007042869    1.71326175289946
C         4.92540012167519   -0.17750632034920    0.74084574961791
S         4.54227481294688   -1.45056253609044   -0.34012381472960
C         5.69172086224058   -2.68051756466493    0.09115844257465
N         5.73043650704288   -3.80245018896832   -0.53672245526032
C         6.55897677730328   -2.41692137192569    1.25720853052139
C         6.57459140968200   -1.37971813862408    2.11499795095331
C         7.62875444140561   -1.30466297328581    3.18678273952456
H         0.38524246838497    2.88189390436553   -0.14867710663077
H         0.60118114115741    1.16349668702417   -0.36638913750261
H         0.84634470064960    2.29448916726477   -1.80323921237998
H         2.59894575755014    3.96345107275118   -1.12622125795353
H         4.81453292191889    1.58431610763420   -0.45149396778584
H         3.79256940665186    2.02614942720941    2.26738313273556
H         5.10796862868495    2.93766139731153    1.42756513859142
H         6.83645879662046    1.55043534884804    2.34917086186812
H         5.15314686056227   -3.87148689534920   -1.38432447424595
H         7.16542990497946   -3.28628522100918    1.49183741022592
H         8.63340358670340   -1.11171824828667    2.79115037419528
H         7.54714543528909   -2.19128653874663    3.82248167301912
H         7.40706271442405   -0.48891348877916    3.88195719203695
