30
 energy: -48.314008397426 gnorm: 0.130003230110 xtb: 6.4.1 (79825abcba525fcdf90b791dcacef51065a7a4e7)
C         1.02752235813207    1.47962228068004    0.26030111435772
C         2.41394423471807    1.61425046578248   -0.27971524515443
N         2.83749429029991    1.76547293926098   -1.48588394608352
O         3.32002185399099    1.72575402792422    0.71017115376006
C         4.72794141466063    1.61047656919450    0.44031500385664
C         5.42781759158465    2.32474514229229    1.59702878792947
C         5.96117339018126    1.24619210551446    2.56250095107181
C         5.14913522139530    0.99506967691119    3.76088778180820
N         4.39342871372079    0.75680878501550    4.61051096689732
C         5.90476908638694    0.02076068984016    1.68194743404671
C         5.18085765083375    0.19031739344529    0.56802238616832
S         4.92462477739173   -0.88199108430891   -0.74363755567349
C         5.44568622510286   -2.37228007364699   -0.01730855804833
N         5.48362642896002   -3.44246172453801   -0.72986593583339
C         6.08276982862246   -2.39149228283446    1.31499927709816
C         6.40960567350538   -1.30002531147652    2.03173875603768
C         7.21803132413770   -1.50732551421801    3.28437215079106
H         0.67181600250503    2.46203220467843    0.58082005491551
H         1.19960350681069    0.88162990474458    1.15943559020957
H         0.35603751302579    1.08297294550828   -0.50645728390064
H         2.00690275016217    1.70736538393016   -2.08520349401199
H         4.84920284791615    2.07507637992032   -0.54558616707931
H         4.69277870905964    2.93929622618371    2.13140142169302
H         6.24760941342710    2.93395343699168    1.19485530144774
H         6.94893187448435    1.51008076914418    2.96192170125026
H         5.09446391169041   -3.37230182990285   -1.67859599850204
H         6.47740614867722   -3.34428762778602    1.65422326263259
H         7.28815997474402   -0.65478791217713    3.97090998695514
H         8.23504475118409   -1.88466744406671    3.14234640187171
H         6.73488124548768   -2.33644312909003    3.81067242971292
