30
 energy: -48.310740967323 gnorm: 0.123842047576 xtb: 6.4.1 (79825abcba525fcdf90b791dcacef51065a7a4e7)
C         1.00648064722081    1.39719644101625    0.24110662881229
C         2.35548192757654    1.79218555334503   -0.26494392997149
N         2.67703333412862    2.39443168469876   -1.35627802081376
O         3.36274955512498    1.31667259532698    0.49174894493765
C         4.74403392819196    1.38793427817092    0.09763740310852
C         5.39866795765828    2.29391221625753    1.14102190230597
C         5.98430445851398    1.35284647732705    2.21401146793123
C         5.23275627158279    1.39230225202955    3.47584262492776
N         4.55320167106248    1.53132320924449    4.40782909427431
C         5.89088278309405   -0.02115500538173    1.59463262572025
C         5.36179910353981    0.05212860156200    0.36649341290818
S         5.04082868844742   -1.28911901836728   -0.65035719037778
C         5.50642039114786   -2.65133686970856    0.32309382328283
N         5.40110720126904   -3.83864666965358   -0.16030116279796
C         6.12390458937090   -2.41371156455778    1.64352408278927
C         6.37864767327759   -1.23337505074274    2.23829188071789
C         7.07653628762247   -1.20126610351205    3.57153458444567
H         0.20704204853433    1.59084855844667   -0.47846646881266
H         0.91087052737198    1.77878253935961    1.26135187436189
H         0.94237712465627    0.32347872015777    0.43900060288183
H         1.87627453224949    2.52176089401432   -1.98478046844867
H         4.90108037784539    1.67255192673125   -0.94968660559431
H         4.62185638422419    2.88731529787336    1.63896350227990
H         6.18622185396282    2.92949016465539    0.71589087837138
H         7.04092095156146    1.54389388447194    2.44183459625212
H         5.09943052044231   -3.79436383243487   -1.14187581620368
H         6.46544871328189   -3.34895542426311    2.07630133078772
H         7.38890455006514   -2.17758156882052    3.96179952075783
H         6.28552740622962   -0.94065141997399    4.28094240294113
H         7.73354744375971   -0.32665199394084    3.60686817683942
