30
 energy: -48.308967628201 gnorm: 0.137360966986 xtb: 6.4.1 (79825abcba525fcdf90b791dcacef51065a7a4e7)
C         1.16321800200531    1.37140716967617    0.78546649680351
C         2.45339484313417    1.28531532077337    0.03717515371097
N         2.73283379050524    0.91592266873341   -1.16389468251261
O         3.49223516248609    1.75633353073041    0.75288276944331
C         4.84203282889853    1.70859330752595    0.25880202158473
C         5.74134461169584    2.38324664967829    1.29517750330604
C         6.01253352176664    1.35172314265054    2.40976140967486
C         4.99558428103999    1.42946139545820    3.46729170112350
N         4.14027104141238    1.48991776104446    4.25119498206626
C         5.77971956898418    0.08069299358800    1.62840499017643
C         5.26977689484725    0.28258954435211    0.40659395195557
S         5.04197132410283   -0.93704421202451   -0.77516340660173
C         5.73386807352742   -2.41647484080579   -0.18137566268213
N         5.75344439696991   -3.51710231097087   -0.84673426581299
C         6.10069892641020   -2.31094302770337    1.24536423809006
C         6.08556401892031   -1.26549241903005    2.09309120283282
C         6.49158274801745   -1.43777398482671    3.53221714169261
H         0.93244672325331    0.30766283582641    0.88335045077501
H         0.48514889632373    2.01093477385202    0.21373549517293
H         1.32431043217115    1.88733431147352    1.73626060915054
H         1.86054019906365    0.63665838951121   -1.62601811405327
H         4.89208839308342    2.15590911115353   -0.74117866980595
H         5.35541678066204    3.34560818361504    1.65354778651028
H         6.69788487180112    2.62202726583220    0.81252710277634
H         7.04248096613201    1.52840382105971    2.74566778788564
H         5.45585580986274   -3.37579944476498   -1.82035283556916
H         6.50848145145165   -3.28021454797076    1.51528227066008
H         7.13791115257510   -2.31529174455340    3.65588896313856
H         5.68501832429873   -1.70162744637755    4.22265880277979
H         6.94446058198832   -0.49116012992902    3.84316061467914
