30
 energy: -48.301388405045 gnorm: 0.141236756922 xtb: 6.4.1 (79825abcba525fcdf90b791dcacef51065a7a4e7)
C         0.81393752805670    1.54321613438989   -0.74782510902874
C         2.28689705882267    1.79020782506966   -0.71186204064964
N         2.92165068300369    2.64971763381304   -1.42980112488278
O         2.90703189030074    1.14964895632354    0.29729695208285
C         4.29784526365097    1.35830586151953    0.59804450682017
C         4.64433393788388    2.10079633975987    1.88903111443712
C         5.84463915565708    1.35262201156970    2.50497266953844
C         5.61004398574073    0.85177359701681    3.86611751409421
N         5.47266692984319    0.55465639534994    4.98082329545106
C         5.94380497440540    0.09225252240890    1.67921682401056
C         5.05454128711181    0.07016555121591    0.67804341117935
S         4.93670449401343   -1.08606600002037   -0.58100202622101
C         5.50024798562510   -2.47823605890947    0.29324121701945
N         5.28507450969789   -3.72308472702774    0.05133562663662
C         6.46254311982244   -2.24514438176187    1.38911755439334
C         6.65843198934322   -1.11014526621919    2.08571042069879
C         7.69081427561143   -1.17619534085298    3.17907212199418
H         0.45387923606673    1.00398581576105   -1.62758493259392
H         0.24966344693933    2.46970671630408   -0.61049496465208
H         0.70185828181090    0.77239196610731    0.01990490516507
H         2.34044248464675    3.09330662354369   -2.14943196814206
H         4.64958143097027    1.91177004740264   -0.28088520280283
H         3.75260073207309    1.99560488809215    2.51931352674624
H         4.83508226949941    3.17890048290874    1.81001604397406
H         6.72289323730021    1.99129418756080    2.66499926485585
H         4.83832953723865   -3.83431258115602   -0.86763438579110
H         6.95826589131131   -3.18712287916993    1.60257728865288
H         7.36738139300507   -1.45410284161821    4.18963193195802
H         8.13244938960973   -0.18155773328281    3.29100498188493
H         8.40080926588485   -1.94408670669973    2.85640832015022
