30
 energy: -48.304970941327 gnorm: 0.129139020365 xtb: 6.4.1 (79825abcba525fcdf90b791dcacef51065a7a4e7)
C         1.07306076796322    1.24942186088445    0.05056739510862
C         2.41671347914598    1.85460554681158   -0.19490792758140
N         2.97331937398522    2.51368384064873   -1.15037195189611
O         3.12825862456428    1.56632867467935    0.91138531121456
C         4.55833540794550    1.71490184261508    0.94537253118376
C         4.95428233292296    1.98997308468131    2.39642555573915
C         5.82833514972737    0.80616627476217    2.85958283883917
C         5.20007403245680    0.26335597640737    4.07170676277450
N         4.52373291705532    0.04319886118671    4.99030007565212
C         5.82345645335526   -0.16830047682680    1.70605397137379
C         5.13992669324515    0.36158579433715    0.68349156813563
S         4.99673393888657   -0.36278483733598   -0.86270880226207
C         5.84155293343356   -1.86734586840796   -0.65631817243739
N         6.02686954291584   -2.74503049219547   -1.57816072905164
C         6.20754167987034   -2.30109356677614    0.70720812600986
C         6.39636907832084   -1.50564640533287    1.77652816039115
C         7.02854633664222   -1.96713739114717    3.06221623397142
H         0.26548108043424    1.77757352508682   -0.46252083283212
H         0.95698790436721    1.12041301541108    1.13016612486375
H         0.99524873712648    0.21285927922537   -0.28946839079563
H         2.36215280195639    2.50760796608185   -1.97431443792892
H         4.82445723125711    2.60672878398796    0.36538776762681
H         4.06436335374803    1.94545333273629    3.03640329490043
H         5.47226584259101    2.95775284471053    2.40210983183249
H         6.77894225924601    1.26557877265350    3.15979487564321
H         5.74403186042544   -2.32067973937349   -2.47056640403033
H         6.49730267343981   -3.34519827963475    0.64002460264986
H         7.53497274087563   -1.17769800275918    3.63089043013006
H         7.72718224030539   -2.77147474874376    2.81357223156775
H         6.37874344216053   -2.42327348456967    3.81558073701070
