30
 energy: -48.305983167962 gnorm: 0.136500189380 xtb: 6.4.1 (79825abcba525fcdf90b791dcacef51065a7a4e7)
C         0.81000220028131    1.81633155074651    0.32895841080801
C         2.25444188517255    2.15548013785393    0.15437247367658
N         2.75505888779190    3.33156971883480    0.00172347167574
O         3.07872860336582    1.09074662861815    0.14100429246249
C         4.50510852043307    1.26678130906126    0.19392653277701
C         4.93823481922838    2.02846646297460    1.44701482584795
C         5.67912632206637    1.05772771675430    2.38968523927668
C         4.77215824731284    0.79019368632754    3.51415567414135
N         3.94358833130872    0.54890751366660    4.29195573695607
C         5.80737718090669   -0.18427297441101    1.54043626455909
C         5.12793589436939   -0.07913682658162    0.39111826443145
S         5.29581109283865   -1.24929005010101   -0.84924929028141
C         6.03693219755324   -2.60838927148570   -0.05956024573608
N         6.07419449144671   -3.78519161413447   -0.57745396428688
C         6.77250476846445   -2.41827748641723    1.20696219279872
C         6.72576574703051   -1.25942996839741    1.89013489313326
C         7.25903793491814   -1.11610214929540    3.29038255851107
H         0.37738982172810    1.71161001463652   -0.66917413940547
H         0.22718313494628    2.53859133575744    0.90715590756196
H         0.45857331970867    0.89886731256763    0.80947702881842
H         2.10968591466168    4.11558584496100   -0.14406799348645
H         4.80097987062066    1.72337509805455   -0.75819773369292
H         4.03529063914761    2.47032565722653    1.88628869068646
H         5.57035088711055    2.90685040279220    1.26314589491702
H         6.60870434073116    1.50576260404593    2.76383806560332
H         5.59406081516325   -3.87938111295807   -1.48136688990378
H         7.21192326777258   -3.33089205343515    1.59769948998231
H         6.64597630484538   -0.54328239117323    3.99685655095299
H         8.26180287703090   -0.69487725720891    3.17245641707561
H         7.46901569397302   -2.11011757983348    3.69745089382647
