30
 energy: -48.309960317274 gnorm: 0.123213330418 xtb: 6.4.1 (79825abcba525fcdf90b791dcacef51065a7a4e7)
C         0.94978151706806    1.50621876815486    0.01341160675244
C         2.39208652144911    1.46085854735333   -0.37337870770282
N         2.89409935990046    1.52284247727329   -1.55712146294865
O         3.16633117539759    1.42161658429935    0.72766172749416
C         4.56824557631956    1.54389312123763    0.43095798077768
C         5.26630863272445    2.33868653688787    1.53504327770338
C         5.98362521581269    1.35002473992472    2.47732042495296
C         5.18851589070229    0.93801037319890    3.64207131998253
N         4.46240914010113    0.65399157783760    4.50336243263587
C         5.97042097226733    0.07358202327110    1.67062501961476
C         5.15148119031479    0.17866978628415    0.61614877912105
S         4.73107639964712   -0.99901979636838   -0.55528597657851
C         5.54511132188437   -2.37735756961604    0.12114000091998
N         5.60648234838660   -3.50710102140948   -0.49072556294146
C         6.37595694376550   -2.27426910523124    1.33783918362627
C         6.58830122397069   -1.17747075280859    2.08869225215492
C         7.31433546104228   -1.14881129278595    3.40689881036638
H         0.44339575326222    2.10039048647236   -0.75139038493828
H         1.00718867034535    2.11632652090807    0.91901778824401
H         0.52272741117254    0.55256064139493    0.33636980607219
H         2.29940294049976    1.43435619516805   -2.38835491953337
H         4.67556944460224    2.03143589288206   -0.54543435944847
H         4.57237456049046    3.02684696795770    2.03344070481757
H         6.00154365183915    2.98332155989308    1.03623268010275
H         6.98311891982667    1.78109061036680    2.61886706007478
H         5.10107825127339   -3.47473086258820   -1.38514015329789
H         6.95343417769809   -3.14023252372789    1.64647652863618
H         6.59026433542058   -1.25021304804589    4.22452417220015
H         7.80208815976991   -0.17851211645057    3.53915357476448
H         8.11127767523994   -1.89861840694855    3.43001506242025
