30
 energy: -48.305169415624 gnorm: 0.131315790315 xtb: 6.4.1 (79825abcba525fcdf90b791dcacef51065a7a4e7)
C         0.85542744466230    1.45554228627947   -0.05935492422417
C         2.31772122635203    1.71626726600181   -0.21944053752702
N         2.83861492675453    2.05260726152628   -1.34755886894663
O         3.16188408225350    1.40442622650250    0.78227249306868
C         4.56844465541917    1.61838159742404    0.57213179241161
C         5.08374785579261    2.21299018450038    1.88319860553219
C         5.85709728062514    1.12482735180893    2.65631810482727
C         5.27756196311936    0.84043281811509    3.97611273472478
N         4.76085974467236    0.55735535669653    4.97741490029276
C         5.80372415249171   -0.06942363605725    1.73373817906919
C         5.11339260350731    0.22606247013803    0.62479441699451
S         4.79025585767101   -0.82879295125734   -0.68624144109308
C         5.72643958918594   -2.23204550129828   -0.26855461022933
N         6.01253857441304   -3.22086940169364   -1.03981384885157
C         6.48992066929411   -2.25916061541683    0.99542719958815
C         6.43811113699727   -1.35507496122971    1.99130970611787
C         7.20171731595701   -1.56292011829831    3.27166965899856
H         0.68398992666441    0.45618215103424   -0.46712588520363
H         0.28056637507620    2.11213903163872   -0.71819107337006
H         0.50627387283187    1.52976674311359    0.97443593662551
H         2.39010457120396    2.50810932532478   -2.14992975803946
H         4.72263743932133    2.26160533519951   -0.30253738800792
H         4.23812132517995    2.60225473276606    2.46362789037448
H         5.72738432785985    3.09907693071637    1.80890711186857
H         6.92510203153010    1.37378766385943    2.70349350158523
H         5.33068994852992   -3.40256309755480   -1.78716145288883
H         6.94924909472016   -3.23682460694133    1.10414763249152
H         6.60176679353944   -1.34058067516991    4.16256644562449
H         8.13084918076317   -0.99790355929057    3.39143932105783
H         7.53155563386903   -2.60547066201533    3.31811332016103
