30
 energy: -48.307892986775 gnorm: 0.138971876999 xtb: 6.4.1 (79825abcba525fcdf90b791dcacef51065a7a4e7)
C         0.88407404363711    1.79167937401115    0.15636742223699
C         2.30653071222953    1.79811321202923   -0.30023268104093
N         2.83168260996039    2.15732654878284   -1.41928901187530
O         3.11342197928625    1.31028254056913    0.66113742172126
C         4.52682377591140    1.48501765353823    0.46085848020106
C         5.09734638838013    2.08567066960789    1.74604829070759
C         5.88817365975960    1.08972504732938    2.61929853103706
C         5.23872902183848    0.91478172564615    3.92552048048956
N         4.75745226251431    0.86609787287504    4.98179819713493
C         5.90573253603835   -0.07476245580552    1.65810221747123
C         5.14436785433856    0.12710957206161    0.57495982407445
S         4.93922737601985   -0.94718987300261   -0.74403616250255
C         5.83556911873981   -2.34921209658943   -0.24311186996378
N         5.75325370255985   -3.45006162643485   -0.90327898855398
C         6.51658368923574   -2.29305718042812    1.06622168828350
C         6.48184657737045   -1.35857668914503    2.03440379851768
C         7.15091065875350   -1.59696404061684    3.36148342314266
H         0.45573028524777    0.80167396260143   -0.01913063752181
H         0.24231288117918    2.42011185005469   -0.46722285994125
H         0.78464055273619    2.09465581243391    1.20253150567630
H         2.11869590071322    2.53311206237996   -2.05401565650818
H         4.63872463863102    2.03052007412969   -0.48384447451921
H         4.26008011601902    2.56451637422697    2.26873486048238
H         5.69384715172034    2.95327396463677    1.43558377223376
H         6.89710291709111    1.39850571716012    2.92188264484347
H         5.40001118618968   -3.24050243549392   -1.84549088650394
H         6.92013963213723   -3.24830968995810    1.38757018924398
H         6.39467337411517   -2.04573403426840    4.01706195212886
H         7.41601175466148   -0.66261978627885    3.86506730869496
H         8.00931484175090   -2.26990145072123    3.27115368176216
