30
 energy: -48.317429274307 gnorm: 0.120752469518 xtb: 6.4.1 (79825abcba525fcdf90b791dcacef51065a7a4e7)
C         0.93310891562158    1.52125681373262    0.30528870152107
C         2.35216502611603    1.82376495726043   -0.05062788623312
N         2.77230598615762    2.32784510813864   -1.15809824629610
O         3.20662677601512    1.51742841749508    0.94402673978616
C         4.62579666948219    1.67846039658328    0.77558017539361
C         5.24027397942622    2.19752246384875    2.07595906179888
C         5.65917624896494    0.92209689078474    2.83601962854979
C         4.68569705809771    0.41321957348680    3.81171507808104
N         3.78972492486404   -0.02485820203148    4.40756903616604
C         5.89607813304032   -0.07203721972427    1.72434837330506
C         5.29839446210026    0.35316711126183    0.60381199695841
S         5.01224907380299   -0.62520235424401   -0.77345579603488
C         5.95600239702009   -2.05857478934621   -0.49997222047362
N         6.00437556873190   -3.06195287001339   -1.30331444107619
C         6.68946895108996   -2.18988497305596    0.77520355806896
C         6.63076532927930   -1.32708463553867    1.80669121505392
C         7.20940541487655   -1.77314038308832    3.12267972738931
H         0.62167887771730    2.04669710793485    1.21155162747313
H         0.88807689469853    0.45953770016859    0.56292070780424
H         0.29214933720568    1.74616470664089   -0.55187423084204
H         2.03134132390773    2.39412685921061   -1.86451229944586
H         4.83366953358035    2.24367963173459   -0.14086650900087
H         4.42986244377004    2.69540221935523    2.62263830957515
H         6.13630878561010    2.82964274869548    2.02613470246086
H         6.61148978503511    0.98196767984803    3.37856492744486
H         5.47953982402027   -2.98154159217091   -2.18339402728800
H         7.17856419038690   -3.14048651758536    0.96433913129283
H         7.92997853158016   -1.06879678254918    3.55597762526661
H         7.61778171295308   -2.78685552475169    3.07283030989037
H         6.34045060555398   -1.94356955726354    3.76590087225038
