30
 energy: -48.306442389742 gnorm: 0.132731576838 xtb: 6.4.1 (79825abcba525fcdf90b791dcacef51065a7a4e7)
C         0.87351481261973    1.63729677163544    0.01836669225060
C         2.29158890218438    1.94507938489358   -0.33694130928651
N         2.77733833621694    2.88903080803616   -1.06502716946293
O         3.06865345225275    1.05790316642345    0.31296162331231
C         4.48081097290985    1.33022354678252    0.31417684298924
C         4.95185218526355    2.22219996420305    1.46330315940583
C         5.75708760858018    1.23944016008374    2.33832353445980
C         5.01145959466518    1.09811837092645    3.59636427057524
N         4.45988618889090    1.02670992393347    4.61635826853080
C         5.96790657436537   -0.08137826618551    1.63744396363096
C         5.20923671980061    0.04324689544352    0.54085156107372
S         4.99263177740634   -1.23167182621207   -0.58325569403935
C         5.68434436798816   -2.62098743877852    0.19863685213656
N         5.70114097834654   -3.79552319640193   -0.32543364121518
C         6.57046062651430   -2.39577586733788    1.35853621698007
C         6.66547153757062   -1.27455907868465    2.09723992520458
C         7.49679233711722   -1.28108795051062    3.35202235925950
H         0.93991160576414    0.55352445070304    0.14253465643935
H         0.23748431444325    1.88462168154270   -0.83600161459540
H         0.49122616582759    2.07482688581575    0.94495388378811
H         2.11235172781750    3.53536124996088   -1.50376682590561
H         4.58767150545478    1.83389975695290   -0.65404293909908
H         4.06403073204731    2.69146571732939    1.90497275729448
H         5.64941468973994    2.91343888331546    0.97286233661250
H         6.72856458343183    1.69489990981842    2.56990482811978
H         5.24019940345042   -4.08459845148555   -1.19745828237759
H         7.06153036740204   -3.30784469702112    1.68351418230575
H         7.06341696057035   -1.71159057623183    4.26302503178616
H         7.84162700534113   -0.27205878412962    3.59661130158005
H         8.42811000574073   -1.82913373676603    3.17836975779211
