30
 energy: -48.315162795806 gnorm: 0.122902661006 xtb: 6.4.1 (79825abcba525fcdf90b791dcacef51065a7a4e7)
C         0.96983271412625    1.55474928273208    0.23089533411821
C         2.42216829755141    1.55778179153567   -0.11927630739932
N         3.07038548268393    1.70483890877247   -1.22168026810370
O         3.12583153977556    1.45274516903718    1.02401285259663
C         4.53789027980884    1.71355903378513    0.94391983019235
C         4.98144727301395    2.14612949284575    2.34182288156716
C         5.69513441270345    0.90370241844451    2.91358076684737
C         4.73200087607801    0.22813720607955    3.79368573502449
N         3.95505608052668   -0.45332370416157    4.32442849853204
C         5.98689442700463    0.00734372901024    1.73389647588809
C         5.28223529778526    0.44259278189433    0.68145183277875
S         4.94502093154120   -0.37867399922694   -0.78407185526422
C         5.82837968326453   -1.84634978530569   -0.49145420586894
N         6.03477659758568   -2.63164542428417   -1.48903990216545
C         6.50755769263918   -2.18580404056620    0.77534358346027
C         6.56353804484551   -1.32802210580546    1.81115892025622
C         7.31974510834014   -1.77520839591774    3.03336631513981
H         0.84839383922100    2.06154703896459    1.19151872173163
H         0.64846446465823    0.51678090862934    0.35334413628113
H         0.28023622966467    2.07306222502485   -0.44137649534356
H         2.51687110858494    1.67300146234773   -2.08484359413589
H         4.71165009401169    2.51222424780643    0.21282491558155
H         4.16042245133498    2.54255984356414    2.95196261054133
H         5.74056542232569    2.91998269942171    2.16911587804384
H         6.58869297554823    1.09786980337492    3.52078173845379
H         5.75082515422340   -2.38170761781943   -2.44473925707997
H         6.87395326762990   -3.20565889995537    0.84076494976848
H         6.59909352474935   -2.20264269725620    3.74120369737186
H         7.80948534968019   -0.92036474202936    3.50904618017829
H         8.04461600321687   -2.54241351550208    2.74384868867957
