30
 energy: -48.310332336909 gnorm: 0.124469144685 xtb: 6.4.1 (79825abcba525fcdf90b791dcacef51065a7a4e7)
C         1.17795397611188    1.65681060417973    1.16337372200210
C         2.32733336024803    2.07386909721799    0.30494650895496
N         2.50044243613535    3.17506295844805   -0.33887889343276
O         3.29323154214769    1.16277963646328    0.52909260960112
C         4.65462548634359    1.38588420136125    0.12266967828505
C         5.21623281954697    2.19550052021763    1.29190517825993
C         5.53803956858151    1.10078710690518    2.33013661750289
C         4.43458819420339    0.82507027996462    3.26017680859122
N         3.56333889032863    0.55989722414430    3.98151448126359
C         5.75090120368079   -0.14793766727627    1.50817891619844
C         5.36411514324998    0.07445305130277    0.24541798645250
S         5.50032142379291   -1.07072755704249   -1.02184749023772
C         6.09844139879225   -2.51059254489981   -0.25434410795098
N         6.14899061348843   -3.66668675646925   -0.81591084759943
C         6.66354402892390   -2.36722108877650    1.10263505401079
C         6.49394892461651   -1.32495745018341    1.93735735498421
C         6.79894187634886   -1.47427856522610    3.40374691188291
H         0.19258720548404    2.02530596047790    0.86731264485309
H         1.47766993575473    2.10899767817379    2.11276658187564
H         1.07674873675143    0.57684358469529    1.30326571571175
H         1.56441619945316    3.50758870924947   -0.59524625538556
H         4.64864870640050    1.81349044600461   -0.88712020941786
H         4.44501259552883    2.89648278863089    1.63447273770937
H         6.15133069424609    2.72931362007419    1.07842817585109
H         6.32861836483000    1.40502777183649    3.02817943263413
H         5.76347853590641   -3.73874387928313   -1.76598811723876
H         7.09012653111357   -3.28216895316690    1.50204397519870
H         5.87506953352720   -1.80169024942681    3.89602129329325
H         7.06179599717971   -0.53972518744210    3.90812003731184
H         7.66957707879736   -2.12737798954026    3.51914834630045
