30
 energy: -48.310764945468 gnorm: 0.129137857439 xtb: 6.4.1 (79825abcba525fcdf90b791dcacef51065a7a4e7)
C         0.94780418723749    1.71680309227371    0.77679217772785
C         2.22945058851870    1.90437328062006    0.03240789410610
N         2.60752726133577    2.79748985079706   -0.81405925920466
O         3.13027192989810    1.01307208112970    0.48780646590804
C         4.50542238600517    1.32959791634670    0.21009917541084
C         5.03409236179182    2.16950421555639    1.37330960671705
C         5.69076805882750    1.18368749910390    2.36165367695288
C         4.91349571360114    0.99174170409092    3.59356438364826
N         4.30963606988084    0.72404574965228    4.54929057369398
C         5.84562920312998   -0.06555483421040    1.52759748346650
C         5.24639626810652    0.03582107275048    0.33417002804776
S         5.28485235954769   -1.09201184496255   -0.95519672250495
C         6.05544975901917   -2.45058218292329   -0.19330013117450
N         6.36040140894429   -3.55554561163492   -0.77684667097354
C         6.48338959520669   -2.31895516827212    1.21411971816578
C         6.31037760328548   -1.32129781591055    2.10101540977508
C         6.89486771347258   -1.47970669456046    3.47901895859026
H         0.17752030918334    2.31241679151853    0.28051027221419
H         1.20268010137022    2.19486195157507    1.72660668814466
H         0.64007288947475    0.66873789820266    0.83158114304522
H         1.99257153457188    3.37768419834026   -1.39513299711878
H         4.55541216911723    1.87749744074370   -0.73851327279673
H         4.21448480250736    2.69236564041435    1.88160940881349
H         5.78535109151627    2.87701504609881    0.99917642334048
H         6.66541565431517    1.58262458741552    2.67109228958375
H         6.03784547475785   -3.62842079902067   -1.75004011747646
H         6.91283390701465   -3.23350387917566    1.61137020164731
H         6.04306311555233   -1.38413873132007    4.16339332640292
H         7.65553580196658   -0.73419123788927    3.72894958922793
H         7.19832866537021   -2.52670618460422    3.57682245640480
