30
 energy: -48.304603777043 gnorm: 0.135937877596 xtb: 6.4.1 (79825abcba525fcdf90b791dcacef51065a7a4e7)
C         0.94277219959514    1.72939286395007    0.76918138962558
C         2.27054428993637    2.10172393782589    0.19446503623287
N         2.60833135127596    3.11565395288384   -0.52313628030480
O         3.17585257091748    1.12969909304965    0.41552928257306
C         4.56265955403880    1.17126150376986    0.03686361698423
C         5.38683746727192    2.16110823420064    0.86083403829568
C         5.82841612562831    1.28204606488778    2.04916881967229
C         4.79375631736807    1.29964908585812    3.09213030411116
N         4.00234347197110    1.25105856464484    3.94126209455205
C         5.81797755378129   -0.15605819282948    1.58875022428848
C         5.22841547008330   -0.12205471619514    0.38671587539220
S         4.98208095710712   -1.48863412312823   -0.61714297736209
C         6.01271075508322   -2.70474997163665    0.07487190757385
N         6.53685323399729   -3.63439690391777   -0.64310964125136
C         6.52920501676676   -2.43979023198128    1.43292891628684
C         6.41534508382450   -1.33726913107817    2.19668311042542
C         6.86440770086366   -1.30684498509958    3.63300932296648
H         0.74454038069716    2.16143789994302    1.75326974715221
H         0.73030270058486    0.65687319361110    0.78359939751984
H         0.18274064517346    2.04802229804099    0.05017627567730
H         1.90091323030508    3.85859479190763   -0.51671539483867
H         4.56060222316582    1.40081521703366   -1.03545130903391
H         4.75754799649298    2.97792023117961    1.23543012825599
H         6.33889096186931    2.29820645772423    0.33193413390007
H         6.78521780774766    1.59512200093631    2.48661022744358
H         6.44994576789350   -3.63980732359873   -1.66725632659344
H         7.02243990057183   -3.30184006217001    1.87135697106006
H         5.92818007970900   -1.20947305873441    4.19609824640176
H         7.52782272364691   -0.46375929481398    3.84739585061980
H         7.36303350277761   -2.22528342070693    3.95813262544830
