30
 energy: -48.307139192147 gnorm: 0.132310756758 xtb: 6.4.1 (79825abcba525fcdf90b791dcacef51065a7a4e7)
C         0.88294818151625    1.75378714872985   -0.80026777868780
C         2.19367093808417    2.10704759483273   -0.17647218003308
N         2.80670389428877    3.23528132694198   -0.26804215871251
O         2.87443869363669    1.04360244080230    0.29142144657885
C         4.26648688827372    1.25354551803910    0.58548683490612
C         4.58649471819467    1.85128037936992    1.95599807576414
C         5.69877162730302    1.01403926841271    2.62064006081218
C         5.28746895308067    0.70916413965294    3.99776777452039
N         4.95115820735660    0.66772811286440    5.10902754618946
C         5.90467371771383   -0.18202532463706    1.72215693431373
C         4.98898438421027   -0.04559077081703    0.75441476314740
S         4.69218874139660   -1.16177045972460   -0.51128970401405
C         5.92407802443036   -2.36609785655644   -0.28311336197290
N         6.33804541807944   -3.27041555743762   -1.09877673800237
C         6.64770303959001   -2.34783132549945    1.00425681608751
C         6.69371571539420   -1.38599382838639    1.94478261373683
C         7.58079892242906   -1.46034635412685    3.15852514218731
H         0.59099461979863    2.47504985735574   -1.56768675460719
H         0.11966656945351    1.91333920096922   -0.03372102054137
H         0.93759029741843    0.69099059214434   -1.05249535812832
H         2.27365877755851    4.04969892285016   -0.59212486195016
H         4.67460567478634    1.76609258796601   -0.29388395740950
H         3.66744739643666    2.02910084591226    2.52804808500453
H         4.99610240858523    2.86042146119564    1.81891157490168
H         6.53148712423618    1.69853334580157    2.82774811356795
H         5.94249451060017   -3.20512855412094   -2.04520988156780
H         7.28782381243022   -3.22356795969103    1.04853383043324
H         8.26656636474786   -0.60493779059583    3.12578689128598
H         8.19063446824404   -2.36797794001809    3.19287725911330
H         7.01338211354681   -1.51702789910564    4.09270252062442
