30
 energy: -48.304679338219 gnorm: 0.132802536932 xtb: 6.4.1 (79825abcba525fcdf90b791dcacef51065a7a4e7)
C         0.88775796846107    1.44226416333097    0.23624300553613
C         2.25530959943361    2.01028805271299    0.03860844616733
N         2.67476715755960    3.21239484786999   -0.15139265168592
O         3.15980582533018    1.03698453703565    0.25735852511719
C         4.54043465519286    1.43182339296504    0.33682523768730
C         4.85463292456611    2.07773206234886    1.68666759093215
C         5.72401235134754    1.09395195568053    2.49675250367369
C         4.76190291919255    0.77560806172572    3.56052029348722
N         3.97518728981840    0.75937180603401    4.41523367464539
C         5.96343789581344   -0.06610776348994    1.56017646648086
C         5.36098870934710    0.18196346346906    0.39007323137979
S         5.32683456410368   -0.99419433896691   -0.85549436649612
C         5.98785768918675   -2.47208371928636   -0.22390004890573
N         6.00948361242394   -3.54722200717054   -0.92964512578224
C         6.59010729948165   -2.42109050016274    1.12368433822290
C         6.53185556804945   -1.35234097304958    1.93990626338242
C         7.24258740272408   -1.57311190957784    3.24823957626996
H         0.83672892688547    0.35198028823723    0.29161237523088
H         0.04992590198767    1.86656611404073   -0.32380600038596
H         0.71025593709928    1.74488849643938    1.27212551481366
H         1.98034992677886    3.95709805782213   -0.27647083251541
H         4.69825203727579    2.08415527412385   -0.53042049108232
H         4.03793913888896    2.44827157528231    2.31850696887856
H         5.43270593013491    3.00966944742029    1.63911583905264
H         6.64535316456212    1.56445063554957    2.86363530386532
H         5.59601046021449   -3.52418373787803   -1.87037238404704
H         6.91584516601717   -3.38667580339233    1.49807647318300
H         7.95528186716245   -0.76888301252522    3.46813733447979
H         7.84994478145294   -2.48198595450975    3.29227921659986
H         6.44964869126501   -1.57346109540502    4.00263340061298
