30
 energy: -48.308192437716 gnorm: 0.117035257989 xtb: 6.4.1 (79825abcba525fcdf90b791dcacef51065a7a4e7)
C         0.93155938797524    1.55916362136617    0.52570728965814
C         2.30078748758777    2.12179362506074    0.32428754940134
N         2.74942714258188    3.31434373205806    0.50773375105417
O         3.13175401561902    1.06269828921065    0.29117484828563
C         4.54747041879502    1.27892613315279    0.15948874305622
C         5.26878854880735    2.12082849905455    1.21252886807587
C         5.52851051476517    1.10553835821851    2.34461184568935
C         4.45964545626388    0.99914675373323    3.34701276500853
N         3.54735732522040    0.89685039221426    4.05904217018689
C         5.73432297788973   -0.17415779371906    1.56984943003041
C         5.22809495353644   -0.04149478208785    0.33706410576419
S         5.21241294835032   -1.27218473777049   -0.85503850353784
C         6.15842517197788   -2.57756846397869   -0.20615163025716
N         6.42332361637606   -3.54275779543616   -1.01405292305214
C         6.68378642209078   -2.40337040838813    1.16313254930720
C         6.48787347348312   -1.35138786919389    1.97970335958959
C         7.05744511208436   -1.30516227260554    3.37220720064193
H         0.12609989468850    2.28533893819495    0.39045540456223
H         0.95310376172430    1.23463500384992    1.56967406270393
H         0.60420589762876    0.76712566022629   -0.15374586607197
H         2.04545206771695    3.98207129451351    0.84090294087471
H         4.71226630406210    1.66733277047955   -0.85270737010350
H         4.82216265958858    3.08750013330951    1.47631008606908
H         6.28033255185888    2.27303123738472    0.81434559662454
H         6.47680609716306    1.34311743132759    2.84374365985101
H         5.95509609458133   -3.45091615270058   -1.92443014542071
H         7.36224785731747   -3.21480776146623    1.40785505261652
H         6.24497919514549   -0.92156870913759    4.00135555946677
H         7.99700724862469   -0.76329111357324    3.51529159084702
H         7.33883321558368   -2.33675662482015    3.60565054262790
