30
 energy: -48.307587534626 gnorm: 0.130752352546 xtb: 6.4.1 (79825abcba525fcdf90b791dcacef51065a7a4e7)
C         0.95965911298500    1.47677266036122    0.52433241944421
C         2.34268449149682    1.86822119643399    0.11700347500075
N         2.77052032126465    3.05941741948916   -0.11775995885472
O         3.26074445571851    0.91091721207391    0.34942494561575
C         4.61737706331286    1.23835062479939    0.00202894098427
C         5.37665563275141    2.21243103292975    0.90350349325693
C         5.74110034091287    1.32814409211162    2.11391586677952
C         4.70821717143682    1.27670865596555    3.15751831045126
N         3.69733795775992    1.35920580317104    3.72412002132452
C         5.95978285450334   -0.00971912233141    1.44868070990980
C         5.37058421244049   -0.03104493732158    0.24617660076740
S         4.98885148888800   -1.45974441263977   -0.61930030946859
C         5.99018760033485   -2.64296779052607    0.16640218964970
N         6.00959733320815   -3.82694319113253   -0.33588423765518
C         6.53919013957212   -2.34646013492459    1.50504628547976
C         6.52477245868471   -1.16011536754582    2.14082555845075
C         7.05752195908885   -1.12296798732329    3.54809726310330
H         0.22925399981812    2.15538595917348    0.07669303297771
H         0.83889703505171    1.42903320963420    1.61005202970376
H         0.76987983885053    0.46441630488568    0.15655603680195
H         2.09994007906673    3.82252807351083   -0.26068295017313
H         4.65301045378575    1.67511614982642   -1.00321954235718
H         4.72984655726294    3.06248924254260    1.15360014215840
H         6.33873920208761    2.45151090545448    0.43215131019273
H         6.62948528429543    1.66568485415425    2.66316929638508
H         5.61844868508001   -4.06317129841446   -1.25656746256038
H         7.07092671472896   -3.22762156905631    1.85064772175801
H         6.32832404983582   -1.25607636059334    4.35656810885666
H         7.54839868340189   -0.17478323440784    3.78655107980887
H         7.78408338623882   -1.93962668564727    3.60322466234855
