30
 energy: -48.313558556917 gnorm: 0.119964823419 xtb: 6.4.1 (79825abcba525fcdf90b791dcacef51065a7a4e7)
C         0.95154058102666    1.52448160555748    0.09125763315949
C         2.41491067747399    1.47632871296642   -0.20562162605434
N         2.95571739612248    1.50099644659628   -1.37353661240394
O         3.17855519052417    1.66816070553572    0.88677588408941
C         4.58111441980863    1.58477418783509    0.57981820005076
C         5.25368551132840    2.27771825261292    1.76534326657859
C         5.81825405018908    1.16811453093794    2.67634464362729
C         4.90991621704101    0.98001336795852    3.81570402690141
N         4.13360564689736    0.83718124988884    4.66814817517777
C         5.88331078847936   -0.03762532936837    1.76959378578052
C         5.17656703649422    0.21464617696602    0.66031536704373
S         4.86621834599156   -0.86205982100685   -0.63596409451420
C         5.69944669900779   -2.32102037033126   -0.19190919708216
N         5.80215859044017   -3.27001871934222   -1.05406849295163
C         6.43814873135183   -2.31144519709573    1.08696391236629
C         6.54330116758346   -1.31752706737208    1.98857748166658
C         7.38859549947257   -1.43302967908433    3.22863895880099
H         0.34860755197900    1.76126666988665   -0.78896578006478
H         0.67132863324994    2.23682612299954    0.87208806419589
H         0.71409577042487    0.49773600917622    0.38375459936745
H         2.25366604670036    1.36295242914790   -2.10873078201501
H         4.63513359940158    1.95570135680169   -0.45074155005924
H         4.49666543188378    2.93524149004991    2.21041977641546
H         6.06055745989283    2.88680021325115    1.33765913751340
H         6.78370707915640    1.49617806374638    3.08268902191982
H         5.12452290934879   -3.26177249089393   -1.82685597440935
H         7.00382528939602   -3.20106034473336    1.34624104356117
H         6.66767624226725   -1.59701274235671    4.03885964543704
H         7.92609337650936   -0.48853097388323    3.35470551995261
H         8.20253697771408   -2.15805423297428    3.13014696209454
