30
 energy: -48.315138017755 gnorm: 0.124516072991 xtb: 6.4.1 (79825abcba525fcdf90b791dcacef51065a7a4e7)
C         0.78051013394376    1.70023576486983   -0.19633570454938
C         2.19151225655641    2.17127043775114   -0.05810630956756
N         2.69928602608804    3.35416202354655   -0.06435930208381
O         2.98657331062969    1.14426631205981    0.29745689835725
C         4.41623749412616    1.27958092108353    0.37555246523407
C         4.89790719677674    2.04078264154196    1.61109249860554
C         5.64947814535695    1.05465403466730    2.52901020674609
C         4.97835209715353    0.72583304381280    3.79394731279670
N         4.49180872395665    0.35181649512693    4.78040928641163
C         5.78018489610207   -0.15963966019857    1.64095368491186
C         5.03445716992930   -0.07381301598815    0.53183246345219
S         4.95833949605008   -1.20954384040807   -0.74889932593836
C         6.04141175458758   -2.46879605969305   -0.23776499590338
N         6.36502590116656   -3.49171613505819   -0.94725392173470
C         6.68180719512895   -2.35046750459765    1.08782189776245
C         6.65469424810864   -1.29112806502875    1.91782303484165
C         7.34527287701324   -1.29073524883950    3.25525213970924
H         0.84276491450511    0.67222248521231   -0.56198813187178
H         0.09793399417052    2.43859436367577   -0.62594715549014
H         0.47369908017996    1.55032091324555    0.84267033253058
H         2.14312898512876    4.17654306117209   -0.32285782569057
H         4.75515664289862    1.71600272252269   -0.57166883539865
H         4.08045107679864    2.38033951339608    2.25914796999584
H         5.59629683542671    2.85844732247451    1.39060840398927
H         6.57140123412471    1.56796685297245    2.83134886121903
H         5.97614996629718   -3.61751159445314   -1.89033906775342
H         7.32263214216701   -3.17645824921415    1.38058850605414
H         8.10302205061121   -0.50222746814216    3.33977557235874
H         7.82193757762955   -2.26399160730320    3.40504310620784
H         6.62845601217791   -1.10204850157672    4.06050542633154
