30
 energy: -48.310611906461 gnorm: 0.123447357631 xtb: 6.4.1 (79825abcba525fcdf90b791dcacef51065a7a4e7)
C         0.85371858465692    1.68500903345979    0.25276126526305
C         2.30856816526106    2.01643313243938    0.17874243963860
N         2.76433960399708    3.21362535792343    0.05182128762953
O         3.11711025332938    0.94850723082074    0.31686816173072
C         4.51963568875226    1.25842521115967    0.24460546704844
C         5.19339331777515    2.14174631661981    1.29521834910142
C         5.62110662233695    1.17014657116559    2.41456490461256
C         4.57244132155126    0.89615766511154    3.40644719573527
N         3.70205101284074    0.69019999095121    4.14787973584910
C         5.80235309554270   -0.12454999852989    1.65882134013264
C         5.22933661310326   -0.04233084964100    0.45113012611861
S         5.01636878784139   -1.24804870730405   -0.74755310194235
C         5.97344825796638   -2.55258599841510   -0.11335966057819
N         6.31122782480231   -3.61974384526863   -0.74703562681293
C         6.67376308325070   -2.31170119555543    1.16445966912994
C         6.64949987769565   -1.25856237449013    2.00240177353867
C         7.40079294599718   -1.29612078063581    3.30615163194523
H         0.50732146173510    1.94801401670345   -0.74984836524809
H         0.32702635168090    2.39228094272470    0.89929923377875
H         0.59731080170862    0.67806240925700    0.59401567947612
H         1.96512945376732    3.85445514747221    0.10698495214728
H         4.59516860957311    1.82323310034382   -0.69232846584796
H         4.64479962498709    3.01650460430758    1.66582888260687
H         6.13619975858588    2.41693976560252    0.80499244058831
H         6.50269620895198    1.46886067846284    2.99629558144628
H         5.76790949873225   -3.83766769464182   -1.59188648787823
H         7.24468322837143   -3.14536163090515    1.56156177081461
H         6.98408215973902   -0.61823440459873    4.06106535107909
H         8.39753709376698   -0.91054132211308    3.07226256681582
H         7.44230042729199   -2.27468392364178    3.79457077727299
