30
 energy: -48.309807972932 gnorm: 0.127293968760 xtb: 6.4.1 (79825abcba525fcdf90b791dcacef51065a7a4e7)
C         0.91700674708628    1.53768105529875   -0.49879815938622
C         2.31504459781596    2.05017806452363   -0.37736914844589
N         2.97463475015138    2.82864224874922   -1.16225140157984
O         2.95668083710530    1.27374873557460    0.51635630462646
C         4.39203911030841    1.35118294449887    0.56217346856001
C         4.89205081552774    2.07436585540947    1.81316815704112
C         5.83420603927898    1.14210594286029    2.60254539767435
C         5.31392690463519    0.96549905290206    3.96516013531553
N         4.67399018466676    0.93621159596735    4.93435737850315
C         5.79559558087227   -0.11682088273902    1.76956863397084
C         4.94943249132205   -0.02634742382435    0.73542719827789
S         4.60452747819148   -1.25177631516780   -0.41144545433706
C         5.79052751263914   -2.46384776872099   -0.03156825371991
N         5.84014529925838   -3.53098352825422   -0.74796582750316
C         6.66932845669759   -2.30755547095215    1.14510935743387
C         6.58975302315784   -1.30708830169869    2.04208774876520
C         7.66627240426200   -1.23395781737003    3.09155120931679
H         0.38001480522645    2.03157618679514   -1.31249092208865
H         0.45390383797348    1.54534980707258    0.49172013543179
H         0.94816903416885    0.49463841168111   -0.82626111316409
H         2.41875334179089    3.29076556807026   -1.89018038865645
H         4.72718007331462    1.80391138977408   -0.37871752229785
H         4.08365063258911    2.45058208525406    2.45227672369394
H         5.51018436043874    2.91429293963637    1.47057470668011
H         6.86124534736865    1.52481274999756    2.54282394986564
H         5.05513589896376   -3.66745597809587   -1.39726860571487
H         7.25822702561193   -3.20199939979643    1.32342967820195
H         7.26259190532332   -1.16317163871082    4.10895177507828
H         8.37161854263287   -0.39925239884370    3.14281707113442
H         8.25210533052448   -2.15761033339314    3.13063795536032
