30
 energy: -48.313021107085 gnorm: 0.123143872708 xtb: 6.4.1 (79825abcba525fcdf90b791dcacef51065a7a4e7)
C         0.92008878826546    1.77561985198622   -0.02448980399191
C         2.36894212253677    2.13548390947913   -0.08132200383454
N         2.98052366338598    3.17590016804544   -0.52921466591371
O         3.10105935401398    1.13103497352866    0.43672379593093
C         4.52466957828620    1.30153069183965    0.32441265917431
C         5.14320882940501    2.11944830664871    1.45861410036888
C         5.83742472650190    1.09108295617938    2.37535311521427
C         5.24044113062424    1.17290838064585    3.71532119923631
N         4.62976133744136    1.37923822332623    4.68187085430262
C         5.77934278970007   -0.23754242699513    1.66007772918146
C         5.09722634982293   -0.06672113632116    0.52026933059150
S         4.95506822537970   -1.23339456620486   -0.72657328286933
C         5.65758831460937   -2.67481780290294   -0.05665944711229
N         5.78344022232278   -3.80803864443034   -0.65200636629818
C         6.39963854780270   -2.53313670080742    1.21242545713081
C         6.47587898078704   -1.46339932154986    2.02586652393669
C         7.18658080009987   -1.47560792958735    3.35265568113174
H         0.74831020523918    1.21131146997440   -0.94450981880705
H         0.21509933216252    2.60046227922663   -0.15967280443404
H         0.77386340706427    1.13444363428451    0.84938216992368
H         2.33847091377628    3.93722219231107   -0.77538484153641
H         4.61803008109080    1.61259806556709   -0.72300286218175
H         4.32380142892708    2.71702931372089    1.87691748066990
H         5.88891003556606    2.85366076312448    1.12725533421176
H         6.86889656790279    1.38365170873104    2.61053444555477
H         5.44902617164153   -3.87273826277947   -1.62176911408956
H         6.79336465092359   -3.47747308605558    1.57552069625658
H         6.80445928692214   -2.28541888552591    3.98610805289103
H         6.91516277160626   -0.56371659727841    3.89271212084226
H         8.27449034433268   -1.59523763678718    3.35078194151249
