30
 energy: -48.312132693795 gnorm: 0.123857339283 xtb: 6.4.1 (79825abcba525fcdf90b791dcacef51065a7a4e7)
C         0.85634680133541    1.73262662201285   -0.40003591448541
C         2.34043850037435    1.70190377734954   -0.56866560853682
N         3.11081454201786    2.16201006216107   -1.49166549111583
O         2.92557863639717    1.35112405748390    0.59230355133073
C         4.36045129253162    1.43284394474883    0.64532291986731
C         4.76947589056011    2.05989526401244    1.97855154590242
C         5.75668553445605    1.09845468807194    2.67204322592971
C         5.37703574531552    0.87786912465809    4.07411580906005
N         5.07026398500203    0.73753366476312    5.18583393543667
C         5.72002884873922   -0.10816854113032    1.76487467505598
C         5.07251836588930    0.11743442695628    0.61445747072779
S         4.86495299046209   -1.01448480917421   -0.65504165558200
C         5.58366959084721   -2.44456710539665    0.02195996586373
N         5.59807824910259   -3.56588094217974   -0.60805107716815
C         6.45885278944846   -2.31163280966263    1.20419160132125
C         6.58299218438689   -1.25234015331137    2.02536501922760
C         7.65186679865644   -1.19778283054363    3.08373470396013
H         0.36392113637467    2.63699741285908   -0.76612210559307
H         0.58691613731344    1.70771254919781    0.65941489418972
H         0.39604771198709    0.84632715524841   -0.84583748201775
H         2.71469436072773    2.40087240397458   -2.40734900608057
H         4.55976374955533    2.00342864109812   -0.26969953234058
H         3.78523298896641    2.19964573661743    2.44249661424071
H         5.20368963728441    3.05772778810103    1.83458775780916
H         6.78204672158715    1.49003338990068    2.66014602525347
H         5.15011277641917   -3.52321351368277   -1.53215336182557
H         7.18842682673270   -3.08933474022420    1.40798350167605
H         7.19546706561973   -0.99447015649127    4.06017508873323
H         8.27307833906095   -0.31991638900950    2.88293309982917
H         8.18938566942583   -2.13233505165580    3.27227546836485
