30
 energy: -48.311685810935 gnorm: 0.128749537649 xtb: 6.4.1 (79825abcba525fcdf90b791dcacef51065a7a4e7)
C         0.96812277837128    1.51428415151419    0.67095761187864
C         2.40750749568669    1.50670031883939    0.27092991290389
N         2.84173253362295    1.27308094936367   -0.91817749584345
O         3.27122732471427    1.84296109133679    1.24776231012958
C         4.66028406912988    1.75586965056445    0.88542934177107
C         5.42274457545348    2.16586952515094    2.14580512691267
C         5.62073864910303    0.80245620362652    2.83991176483789
C         4.42455042157387    0.55368565080085    3.65590588112478
N         3.50350519669001    0.30186336796668    4.31770748927953
C         5.58653635956405   -0.21250991545302    1.72236440807366
C         5.16026635220058    0.37557440926163    0.59716354009265
S         5.25919320048997   -0.26900254425857   -0.98735109219641
C         6.05357682715628   -1.79560174393885   -0.74554603864129
N         6.32798607735264   -2.67700170757498   -1.64125800687978
C         6.41465350959842   -2.18000322406500    0.63400024746858
C         6.25126635807122   -1.50691858577455    1.78816619517069
C         7.00910455510645   -2.00171445559359    2.99086074263629
H         0.67754250611734    2.49869746621787    1.04630037965307
H         0.85406813614313    0.78590378923131    1.47848668010624
H         0.37513356592510    1.17974999127838   -0.18495811032622
H         2.07966594114780    1.17209239117994   -1.59751433086357
H         4.97776282388809    2.47676412077735    0.12248973319295
H         4.80774336687765    2.89706215687034    2.68491565252260
H         6.42726792204821    2.58373456304372    2.00000200807247
H         6.48821909809720    0.72621123550368    3.50812233327008
H         6.13560905420426   -2.46115675187092   -2.62759499175612
H         6.82296369786997   -3.18440517565089    0.68958105432596
H         7.52460139827657   -1.32638565557764    3.68459456610113
H         7.80906318625412   -2.65558668170728    2.63114994820328
H         6.39342074986541   -2.63817351166155    3.63406781374288
