30
 energy: -48.306611489712 gnorm: 0.137763655710 xtb: 6.4.1 (79825abcba525fcdf90b791dcacef51065a7a4e7)
C         0.88742792132793    1.56230053898941    0.28682321509586
C         2.25941239076357    2.13866339180696    0.15501836400767
N         2.72118318176164    3.33340737712429    0.02672038479382
O         3.13208428144979    1.11538751802267    0.22309952142132
C         4.55441690239944    1.23390547806719    0.04626019416513
C         5.21343745587259    2.22100583430402    1.01027152667089
C         5.75564902934983    1.25688868452279    2.08561626258068
C         4.87456833978580    1.07872671678015    3.24774989824904
N         3.98420362532537    0.77484308316323    3.92938436434038
C         5.91253839391870   -0.10078603895596    1.44347673511107
C         5.19838831707767   -0.09038397915945    0.31055672881086
S         5.13920188849031   -1.46343159453822   -0.71276618920411
C         5.94867528454571   -2.68072435077380    0.22689933550841
N         6.06610757855572   -3.85814656189724   -0.27743472328902
C         6.57128388749718   -2.42566054147242    1.54165778807743
C         6.60385456855042   -1.20162501225154    2.10068685130681
C         7.15908666193736   -1.01730300149049    3.48753888511647
H         0.64468253090302    1.08123568583001    1.23763336729069
H         0.69809193056019    0.80628692563070   -0.48014804217077
H         0.12694629631037    2.34036888941958    0.17538545401023
H         1.87734955188104    3.91607882316066    0.05641055637149
H         4.73840525711736    1.56170888804441   -0.98391049655689
H         4.53525298848878    2.96413940881714    1.44768166826071
H         5.97214435705774    2.78201145638084    0.44940306878420
H         6.70477097010134    1.59391991894096    2.52198591488397
H         5.62368960189602   -3.96796312698306   -1.19866502219392
H         7.03376941981782   -3.34737876463924    1.88102833457557
H         6.29662031126113   -1.23250904367854    4.13012019223003
H         7.51090556261454    0.00804249179910    3.63506730906255
H         7.90400983672929   -1.69592361185969    3.91465192441939
