30
 energy: -48.304200741908 gnorm: 0.128783607494 xtb: 6.4.1 (79825abcba525fcdf90b791dcacef51065a7a4e7)
C         0.93456090188327    1.47134209630445   -0.95431220519904
C         2.36334898686683    1.83100387674527   -0.70709564049391
N         3.13650622622991    2.59532002905626   -1.39641016040442
O         2.93448458750621    1.17053635101068    0.31802460702522
C         4.31605864839026    1.40325771603203    0.64274374733094
C         4.62416389682604    2.01961730076454    2.00772175299790
C         5.79861837090943    1.23385730938801    2.62668811829705
C         5.54849695212102    0.98173343851063    4.05233608243465
N         5.16598290250466    0.74178896367453    5.12277043493856
C         5.80283256822301   -0.06776124251546    1.86117574209615
C         5.00297576690224    0.08324329131018    0.79766614086233
S         4.45125825324430   -1.20334572449042   -0.19038690494364
C         5.63558743324836   -2.43553512801404    0.12440451803346
N         5.49077492046683   -3.63970993797504   -0.30391603877970
C         6.62816793262778   -2.26103032944190    1.20404362812363
C         6.79771604780922   -1.13033472326102    1.91440827067402
C         7.92110551579497   -1.04222074759440    2.91232992825026
H         0.88205674578521    1.49352372848193   -2.04570578559956
H         0.20913380846850    2.14036624387127   -0.48334317455848
H         0.71009131146232    0.55065022937388   -0.40834433147827
H         2.72720316265543    3.04379054122175   -2.22332485609663
H         4.71891057666271    1.97985081843833   -0.19857015735073
H         3.70851954776809    2.08922492948411    2.60793793954581
H         4.98917165726002    3.05075922885476    1.91578419482475
H         6.69658940914905    1.82029394739655    2.39306240619069
H         4.73744800116384   -3.84604347857889   -0.97203549441695
H         7.23165224710447   -3.13412327367832    1.43239641386682
H         7.50975108724552   -0.48080987611082    3.76007866063711
H         8.79561766052327   -0.54849852928970    2.47834676301064
H         8.17179942530088   -2.05585651404948    3.24028885844902
