30
 energy: -48.317712620097 gnorm: 0.119813414775 xtb: 6.4.1 (79825abcba525fcdf90b791dcacef51065a7a4e7)
C         1.09916615875191    1.85332862303459    0.24034794782263
C         2.49029869429987    1.50248456556666   -0.17626546705812
N         2.77794793345758    1.02368564734492   -1.33605653370490
O         3.38154176185064    1.71378611185005    0.81081214131038
C         4.76804350312226    1.62751081619186    0.43863188067654
C         5.59647683607539    2.37613723314478    1.48326083381212
C         5.97962380245755    1.26981689904236    2.48781803336469
C         4.98584489116809    1.17122778107984    3.56544643680433
N         4.18035586761897    1.11947768750286    4.40104767304697
C         5.94080227779660   -0.00263481684483    1.67566204022421
C         5.19157283084419    0.20002475687054    0.58423623175063
S         4.78321384418601   -0.98139191640087   -0.58770656467887
C         5.60898395325765   -2.41346429426494   -0.05170990627002
N         5.48497647327293   -3.50611470631390   -0.71894552109270
C         6.46621555891692   -2.32364950658573    1.14761318372904
C         6.45950271473622   -1.31453118520673    2.03838375603152
C         7.02788524411190   -1.46821894455719    3.42364076979158
H         0.95114934556500    1.96453510789891    1.31743327365762
H         0.41996194981330    1.05123054773463   -0.06126426454225
H         0.73346948703813    2.77478163611837   -0.22153008754833
H         2.02222698456213    0.97051142446201   -2.02779424564568
H         4.89185112840932    1.98905865986959   -0.58923639999368
H         5.01083305474211    3.22442544057625    1.85867760006936
H         6.52460658195071    2.62109233539227    0.95080517144976
H         6.94607084905755    1.31476700680812    3.00627777020753
H         4.85413494094742   -3.33350574021315   -1.51185389897877
H         6.96904112186514   -3.25975088640719    1.37012221736485
H         7.62430513960136   -0.61381451676699    3.76620306551481
H         7.58251392164913   -2.40906388331685    3.48745568258883
H         6.11280551300482   -1.60390561266593    4.00851698288347
