30
 energy: -48.310535541164 gnorm: 0.134646499459 xtb: 6.4.1 (79825abcba525fcdf90b791dcacef51065a7a4e7)
C         0.92686755146660    1.61144035982925    0.20286387085428
C         2.40159902148104    1.58075031800017   -0.03406066411460
N         3.07157551970770    1.73332065194133   -1.12261915764243
O         3.12352646145422    1.49503675758040    1.09941130856267
C         4.54030779323780    1.70260496221499    0.96526679175062
C         4.95073184424644    2.09026924898982    2.38627398656429
C         5.68209244517217    0.83851939503465    2.91364048319233
C         4.69342185597788    0.20701484252832    3.79813570121596
N         3.90141712816318   -0.36364854417553    4.42804988607096
C         5.89546840778898   -0.09435023486698    1.74553826858130
C         5.17445859649632    0.37048041139195    0.71709124757141
S         5.00990280919550   -0.42150235194478   -0.79341761535949
C         5.96966021479319   -1.85900622175571   -0.61322791199043
N         6.00116761045658   -2.79301456595233   -1.49702757204717
C         6.73183702808026   -2.10850946787561    0.62698305016117
C         6.59948898600226   -1.36951396400980    1.74421476181468
C         7.33293336912757   -1.69667779028581    3.01725788294448
H         0.57201409896395    2.16751261226275    1.07421416547908
H         0.54698727990782    0.59318935247626    0.08242520545653
H         0.48962489483459    2.11485344408395   -0.66404740306826
H         2.46619405015571    1.95256779593490   -1.92129724008723
H         4.77387669903152    2.54670010837404    0.30533701036298
H         4.09461358041970    2.52216655053732    2.91922380404392
H         5.63009248734476    2.95056107205993    2.32879396169241
H         6.54158632675911    1.10094568895510    3.54391312392830
H         5.39162908063508   -2.74573174906606   -2.32327553759825
H         7.27447087373855   -3.04879886950462    0.62115556154870
H         6.60997491538119   -1.51887602932228    3.82273299660549
H         8.14298066780363   -0.97688594811478    3.16758283110746
H         7.61336348972772   -2.75132817100823    2.93399030620045
