30
 energy: -48.308976864460 gnorm: 0.134986413349 xtb: 6.4.1 (79825abcba525fcdf90b791dcacef51065a7a4e7)
C         0.87289826948852    1.78757431939574   -0.11700785037643
C         2.33457340861860    1.99932797063295   -0.34189493304299
N         2.87300333341917    2.85497070781113   -1.13881056793036
O         3.07527320860900    1.10952686709854    0.34578417470068
C         4.50408148665361    1.26573778462041    0.39531903655804
C         4.85337168626434    2.06939982556186    1.64836198148960
C         5.72093439456713    1.15410856928346    2.53687663955349
C         5.01908365644895    0.95013605991452    3.81139617464760
N         4.39837663095888    0.76973051867799    4.77674413355908
C         5.81690601850552   -0.13573876902257    1.75756855110630
C         5.09460794163560   -0.08856566840680    0.63076505134537
S         4.86809116518079   -1.27294353246361   -0.58656462772454
C         5.80424539966747   -2.58466059511920    0.06384568323572
N         5.78200189621641   -3.75420111102832   -0.47108080209886
C         6.67525413297851   -2.40977895923663    1.24369685202887
C         6.65316473003504   -1.30182811231576    2.00776099664209
C         7.56455438638716   -1.03278426955681    3.17506554952442
H         0.31034943826339    2.54157494499573   -0.67325467307311
H         0.82370211448581    1.88457830373758    0.97102687901226
H         0.60628682037447    0.75383529348401   -0.35458518962182
H         2.29284599750706    3.66334767090960   -1.38858419302861
H         4.82058989500495    1.75221274674537   -0.53512328090585
H         3.91763610069151    2.40875521602402    2.10960606144046
H         5.38798632028863    2.98522221076469    1.36482467388904
H         6.72026488791467    1.59940068577974    2.62572700012442
H         5.29472018458459   -3.82756399910383   -1.37309688040322
H         7.44908215163298   -3.15729249383551    1.38875999207107
H         7.06522332516166   -0.90128532906791    4.14276853174017
H         8.28833772109061   -0.22183109238110    3.05110130794874
H         8.17830606963983   -1.93818543995525    3.13738845169242
