30
 energy: -48.311459515526 gnorm: 0.130663523018 xtb: 6.4.1 (79825abcba525fcdf90b791dcacef51065a7a4e7)
C         0.87688336870466    1.76086805277202    0.27947850708850
C         2.28767161405538    2.09617790440880   -0.07989852603336
N         2.82461947325012    3.10276543173607   -0.67619908248042
O         3.06371701833438    1.08448520063447    0.35313283228851
C         4.47747145659544    1.34180534499299    0.29453782031692
C         4.82715437112588    2.11020263659393    1.56940267837473
C         5.67537036364506    1.15643319912016    2.43585229614210
C         4.81693851364125    0.63611409793233    3.50868132042661
N         4.30734919549272    0.25433801010306    4.48042501894629
C         5.99141045836042   -0.00095433394383    1.51889504627619
C         5.34533382424626    0.12453431289415    0.35250594443453
S         5.28844473601571   -1.11430512620524   -0.82986151400894
C         5.86095532019977   -2.54083579997106   -0.01914464042110
N         5.73729651240801   -3.76204537833104   -0.40362065479459
C         6.49561265681808   -2.37712419195813    1.30437233030398
C         6.68476160334793   -1.20881212482557    1.94554832408059
C         7.36093427270091   -1.22766758818191    3.29018604921435
H         0.35935102918936    2.62409414308343    0.70537714911306
H         0.89982253240282    0.99246404012595    1.05708938326857
H         0.29249845504065    1.32103386899254   -0.53365198297811
H         2.10033315055746    3.64551906110730   -1.15917996577262
H         4.59327231048822    1.85088323794415   -0.66982115382783
H         3.89631848324163    2.47148508372572    2.02385709178950
H         5.43849563512943    2.96870003157805    1.26251354472891
H         6.51413581361206    1.59731786319949    2.98986866087466
H         5.31983592190269   -3.88156446578776   -1.33523239252421
H         6.99242255970088   -3.27810212418115    1.65085220191625
H         6.66689139791774   -1.09860046480370    4.12966130737430
H         8.04152853828643   -0.37435960220841    3.21581237475515
H         8.00183341784764   -2.09707792723581    3.46692288721164
