30
 energy: -48.309113109161 gnorm: 0.130562407143 xtb: 6.4.1 (79825abcba525fcdf90b791dcacef51065a7a4e7)
C         0.99293803618031    1.81499436608835   -0.33190846414870
C         2.45502345371719    1.61116177293629   -0.56140034886814
N         2.91170815258018    1.37885623514806   -1.74232330414196
O         3.10611467465313    1.68691762614964    0.61487598793051
C         4.53953925147610    1.60559728402084    0.53103319240190
C         5.21941042847341    2.38218699750886    1.65916285303599
C         5.92315442363649    1.27739527926763    2.47406228568490
C         5.26629261266825    0.90983277386064    3.73581886829407
N         4.82914648943185    0.69480211865264    4.79051557654649
C         5.93548082892503    0.01732472350609    1.64201175291546
C         5.04939750067065    0.20457126989286    0.65539075135072
S         4.67483193577382   -1.09561644405772   -0.39587746301766
C         5.48648202037514   -2.50783068390298    0.20984116042570
N         5.36903264229314   -3.67586326080714   -0.31586947740224
C         6.26993489194080   -2.36869943970088    1.45408095897007
C         6.52287204664948   -1.22679976887868    2.12035791678196
C         7.58037945843103   -1.16573216956991    3.18973363587030
H         0.40780273788288    1.16297364575375   -0.98526466197755
H         0.79965620483506    2.86419276901856   -0.57164676162304
H         0.73851717989623    1.58436616075852    0.70646607762892
H         2.20783510066776    1.40757479964705   -2.48809852688356
H         4.87601722154553    2.12191019533171   -0.37602905084088
H         4.43967312237083    2.87398092653138    2.25385414574238
H         6.02599417503144    3.06746436961667    1.36803670313766
H         6.93194129433511    1.62781267877799    2.72782909715333
H         4.77787231396154   -3.76868143048570   -1.15155652253199
H         6.75124351467267   -3.29514420151342    1.75185892790960
H         8.37156487999003   -1.85333891252874    2.86678605166856
H         7.08475286797947   -1.31925349889442    4.15288471165101
H         7.98787288782824   -0.15070675733698    3.22890610524736
