30
 energy: -48.313652882714 gnorm: 0.119389401017 xtb: 6.4.1 (79825abcba525fcdf90b791dcacef51065a7a4e7)
C         1.27360626773999    2.02322891718251    0.88098744297162
C         2.63195906971784    2.26633051561930    0.30854766395402
N         3.08520495696793    3.31942876071585   -0.27682235569641
O         3.44605932741518    1.22161762823798    0.55165362499597
C         4.79147678348999    1.27801121216708    0.04665829207067
C         5.63135828116680    2.05476200539768    1.06117799644901
C         5.87680846946878    1.04525120887346    2.20158301082485
C         4.87718978868563    1.26180726581817    3.25631769539769
N         3.99741564301678    1.56546842123148    3.95166466514587
C         5.80256862016506   -0.30554629577014    1.53070868811111
C         5.32149492308663   -0.09826360342196    0.29813904495034
S         5.08943920825332   -1.29145800826149   -0.90949897537066
C         5.48986749307357   -2.75332394264474   -0.05942535853706
N         5.24433178986490   -3.91328608361872   -0.55808976167537
C         6.09027623838722   -2.71840928563077    1.28949231352393
C         6.23644047483033   -1.60351864075975    2.02941927043107
C         6.78318122919788   -1.61075781065940    3.43178788888982
H         0.72467626526977    2.95143352677592    1.05847184786131
H         1.40958858926798    1.62093358722439    1.88861678085340
H         0.68729058828854    1.46782468066809    0.14349094201737
H         2.51117217355898    4.14341656612635   -0.06712454149959
H         4.84723631769731    1.78097894046789   -0.92620999489054
H         5.18330054113156    2.99546685132506    1.40443872055996
H         6.57657182651695    2.20410737504236    0.52340092895968
H         6.89288217650965    1.19541196848745    2.58873525922653
H         4.73253002911780   -3.94110216764447   -1.44901277110343
H         6.34681351093686   -3.73536882809915    1.56986977013850
H         7.76833248933253   -1.12953358400344    3.40059841324931
H         6.88803678661215   -2.65277323464123    3.74814793255740
H         6.19579343690147   -1.01138479735936    4.13434716062515
