30
 energy: -48.307868270340 gnorm: 0.134926025558 xtb: 6.4.1 (79825abcba525fcdf90b791dcacef51065a7a4e7)
C         0.90363246127715    1.63540297788573    0.02995010081766
C         2.33211460039798    2.05365776364302   -0.09815038601079
N         2.73327045048900    3.23308476511636   -0.42239063597966
O         3.10014684911535    1.08089669424468    0.42829725754146
C         4.49779600893466    1.31483429907643    0.18294308407502
C         5.07715380698160    2.16962989403272    1.31062299247117
C         5.80718738938373    1.19037627844908    2.25295773364235
C         5.01353878319938    0.97752357129797    3.47091295307077
N         4.47812094275613    0.67579639421798    4.45681787039381
C         5.90888349280464   -0.11758403800960    1.50520406564905
C         5.20408686844298    0.00979796364485    0.37354091586458
S         5.04929589650313   -1.31537056849947   -0.70159648941650
C         5.80257653874258   -2.65618695425622    0.10760044499061
N         5.85057919236985   -3.83295656440762   -0.40948288711346
C         6.34001664490048   -2.40360036120366    1.45987509840604
C         6.56867053973000   -1.25737402577025    2.12749748192422
C         7.32398766931705   -1.14768098061360    3.42483285757088
H         0.66352845961932    0.91060355461384   -0.75197350370758
H         0.21295686604607    2.47356542165789   -0.09693782805711
H         0.80947939291145    1.09496504465525    0.97610181747265
H         1.89997550261245    3.78522725253213   -0.65304387508412
H         4.56595021357120    1.84381778117300   -0.77522696465330
H         4.26160753445482    2.80704819196203    1.67406687876727
H         5.79737154095456    2.83682433753102    0.81962926029707
H         6.77932477854558    1.62151172833074    2.52482538220184
H         5.65380941348869   -3.78953679705081   -1.41737919468534
H         6.88496282246663   -3.21917801323994    1.92516680794472
H         6.60018420051788   -0.71757645420120    4.12782018578616
H         8.20711360234844   -0.50389778210855    3.37477003836280
H         7.63937996654635   -2.15317757712344    3.72041069367685
