30
 energy: -48.304909572925 gnorm: 0.127288043759 xtb: 6.4.1 (79825abcba525fcdf90b791dcacef51065a7a4e7)
C         0.94404211616449    1.65339076969330   -0.24958355339770
C         2.40170371719941    1.98014107548840   -0.26868677356040
N         3.04970138413242    2.78878596383289   -1.03242644843741
O         3.08185751637551    1.32228360774978    0.68938375796740
C         4.49797681007485    1.50427172313879    0.86211244668854
C         4.81366577726473    1.90024761819853    2.30486558322446
C         5.81000284953162    0.87271925262053    2.88052126427210
C         5.19786417108203    0.36529031248723    4.11599752189256
N         4.49661870806342    0.24036432347264    5.03380384063796
C         5.92501608847086   -0.12650440191206    1.75421661548445
C         5.21058778174286    0.20284534170070    0.67035905480837
S         4.82632808961037   -0.70675427412061   -0.72997147775343
C         5.68145895642407   -2.18975568803659   -0.43084251902284
N         5.71188700819229   -3.11965680240720   -1.31900033352242
C         6.56571323824255   -2.20714687433653    0.75198490810053
C         6.67855468721175   -1.37214313200542    1.80168623417511
C         7.42515932066281   -1.83272835470547    3.02482098300538
H         0.72446083714771    1.68572277056893    0.82052268672642
H         0.63972855206489    0.69835342785026   -0.68655785532978
H         0.34198844526455    2.35654247497146   -0.83203534606492
H         2.54463448253438    3.25071068364378   -1.79660947243305
H         4.77118554929319    2.29872022259948    0.15729544378208
H         3.91177951681958    1.97880476304309    2.92449390552386
H         5.14393213331816    2.92456504757832    2.52081658320539
H         6.80382507105286    1.28952494432291    3.08892326782171
H         5.05195797754730   -3.00630168549270   -2.09880986173810
H         7.28121161135969   -3.01497530714160    0.63322038450088
H         7.85974498875822   -2.83823634589781    2.96859315473971
H         6.68089487891518   -1.66714296903162    3.80937593245777
H         8.27635119766117   -1.17036433678700    3.21085405209005
