30
 energy: -48.311815366456 gnorm: 0.128894988465 xtb: 6.4.1 (79825abcba525fcdf90b791dcacef51065a7a4e7)
C         1.10411069049242    1.42180173838342   -0.25070791839937
C         2.53403347996188    1.80944996369766   -0.44295175163431
N         3.13974408128659    1.95122502039563   -1.56994789550347
O         3.20532709506298    1.67824798745647    0.71697741769521
C         4.63249284293890    1.63160021751809    0.54559900514998
C         5.37990234185678    2.28829843475233    1.70668446076570
C         5.99553597375326    1.20530858343592    2.61663482119980
C         5.21764111227152    0.95940852888106    3.83852354965654
N         4.50362947158958    0.71309975048759    4.72126894282874
C         5.84213043568729   -0.04582386370977    1.78514689503221
C         5.14458308591959    0.23195148109477    0.67614080889109
S         4.62166384892922   -0.87037581481915   -0.52693123177524
C         5.33645748757452   -2.33524984938185    0.07575783001740
N         5.11386196135964   -3.51361097475487   -0.38941142635719
C         6.34879914699791   -2.32541177201936    1.15109786098097
C         6.49418325188392   -1.32351475254706    2.03817333074327
C         7.46808651587681   -1.52767609533608    3.16752986983836
H         1.03942255725636    0.34085320101385   -0.39820152490306
H         0.39978420420058    2.01177580128002   -0.84358599371073
H         0.85832909427673    1.54224100901290    0.80817206527531
H         2.58023609744722    1.92409260209505   -2.42939967460581
H         4.86807596040253    2.01480316298483   -0.45450822379816
H         4.63253269586250    2.84134113089046    2.28900023605352
H         6.11419654951650    3.03464066158167    1.37695403923612
H         7.02131146523274    1.38648522030626    2.96275700047275
H         4.60451810566488   -3.63235532420033   -1.27424316296140
H         6.73881534403073   -3.33543641440982    1.23089260314550
H         8.13413113314330   -0.65949438494190    3.24314489947972
H         8.09426311167123   -2.42117223833427    3.08726768371822
H         6.80752612508556   -1.43890408842610    4.03565513193847
