30
 energy: -48.297586741453 gnorm: 0.130989432118 xtb: 6.4.1 (79825abcba525fcdf90b791dcacef51065a7a4e7)
C         1.07175401205465    1.67744116934590    0.66657986432736
C         2.44720170956411    1.37893478627896    0.16563516554857
N         2.72285985537264    1.20538597012944   -1.07975601826261
O         3.34464330539953    1.61294095184014    1.14191609237415
C         4.74678186715341    1.78670116466444    0.87328345594791
C         5.37859507800497    2.08854433597744    2.23258317279399
C         5.62329348503109    0.71943762345335    2.90007920121660
C         4.46239840053866    0.35532085134629    3.72369372938066
N         3.40684701076185    0.12980343790206    4.15342995534423
C         5.70192338025528   -0.22561079947723    1.72494574055027
C         5.38272524286216    0.45683491568406    0.61769403034603
S         5.12231102104396   -0.29850719079127   -0.89808797104063
C         6.02327085523148   -1.77125404540475   -0.69982539317683
N         6.14377367225117   -2.62023223886295   -1.65856479049581
C         6.68832745947923   -2.10474016153738    0.57601758263658
C         6.41558050107918   -1.49525246658959    1.74476515425711
C         6.99454119588329   -1.87582182535437    3.08102376606416
H         1.07046462899973    2.75882247991419    0.82469835651842
H         0.93107166807569    1.32304527978057    1.69140259913069
H         0.37594658843582    1.37599797499922   -0.12153501332541
H         1.88498741618264    1.15917700838526   -1.66990618574543
H         4.82958204321802    2.42668855286893   -0.01334986486059
H         4.60968894290877    2.68180452189454    2.74281349488672
H         6.33896046528782    2.60510666259525    2.10689091590168
H         6.45823217332263    0.78626491450782    3.60948204384540
H         5.52457217135851   -2.30928762964726   -2.41774957732121
H         7.28596699291128   -3.00957193387536    0.52371029896726
H         7.42312294541016   -1.13656973785856    3.76869852051812
H         7.79757595501131   -2.56518565654583    2.80391873742851
H         6.17258990111667   -2.28303257947750    3.67804757978514
