30
 energy: -48.306042018915 gnorm: 0.125659009041 xtb: 6.4.1 (79825abcba525fcdf90b791dcacef51065a7a4e7)
C         1.23175197787230    2.00426151229983    0.30210906118238
C         2.47204367316849    1.27948325201759   -0.10811161509193
N         2.52800398325332    0.21141186695412   -0.82448984206152
O         3.52674720831543    1.92440811010401    0.42570214341458
C         4.91990137858801    1.67990779586010    0.16552969923303
C         5.66669879305004    2.43760130709571    1.26379520159989
C         5.92876644019836    1.37037670064840    2.34649259181268
C         4.83522944499587    1.29947089603311    3.32513886687152
N         4.13836591500479    1.12137538214882    4.23748928158866
C         5.89661709870056    0.06588933547102    1.58654721464441
C         5.25422011818920    0.24493967083260    0.42512866369088
S         4.99564806899966   -0.98711337428285   -0.73725600639828
C         5.45959545181390   -2.43103553908440    0.11119056722614
N         5.49219929950947   -3.61343265625806   -0.39412140378300
C         6.00577096394838   -2.35940318002381    1.48153713295497
C         6.30492533260641   -1.22069209069100    2.13397929778260
C         6.97291030583337   -1.28853934917486    3.48112755803140
H         0.43797460828688    2.03159396889436   -0.44859666169391
H         1.46505261683797    3.06978985374031    0.37872349613149
H         1.00186224565625    1.51937545945023    1.25509240704152
H         1.54329714726885   -0.02020683757656   -0.99521750813805
H         5.24374624369673    1.97999358057491   -0.83827874583645
H         5.02778667740691    3.24330954137744    1.64607104786889
H         6.64536443683084    2.79898511433832    0.92239783832936
H         6.86829204692591    1.47380304980261    2.90455668196677
H         5.24544712822475   -3.59961236784847   -1.39180920800291
H         6.31417910817100   -3.31830376258806    1.88653553210278
H         7.54772766637378   -2.21237181607946    3.61965957069805
H         6.19249738893817   -1.06183655921582    4.21354549495547
H         7.82273779131721   -0.61158991794022    3.61301642498517
