30
 energy: -48.313253547575 gnorm: 0.119112003834 xtb: 6.4.1 (79825abcba525fcdf90b791dcacef51065a7a4e7)
C         1.09523889696027    2.01553011775870    0.10435532634000
C         2.43744037104317    1.37241364820358   -0.02527657599756
N         2.63255294216003    0.38388929915836   -0.82643605004537
O         3.42220182952298    1.96282349578262    0.67824729310905
C         4.75545169262463    1.59549138535424    0.28345548821553
C         5.70279690478234    2.30980011489572    1.24797248639752
C         6.04607802749632    1.29278295572383    2.35599578244285
C         5.02704785739602    1.39616222516268    3.40931888729708
N         4.18976737313574    1.43386055584484    4.21384377583801
C         5.79575824257730   -0.03093785493593    1.67383666179899
C         5.10297813428268    0.16390179345953    0.54435926397289
S         4.98581850312864   -1.02891867104080   -0.68014279721512
C         5.59318593175496   -2.48161011905433    0.05525664736750
N         5.52615758762158   -3.60477547624550   -0.56801931246214
C         6.28725281851463   -2.39981753743896    1.35635991719037
C         6.33401602997791   -1.30324458742599    2.13557620596769
C         6.91462387740696   -1.26915196876175    3.52386574483844
H         0.44990708135274    1.86536897366002   -0.76477477718427
H         1.18997452475313    3.06584156646042    0.39335468250584
H         0.61422955401110    1.48636083193355    0.93185209955191
H         1.70365334394819    0.09987191898841   -1.15646995349288
H         4.95988431479255    1.83098069076618   -0.76788197562716
H         5.31306367229273    3.24138250099255    1.67665831374143
H         6.61545394248641    2.54931164672259    0.68705518610299
H         7.04501597124289    1.28186981433116    2.81079770850610
H         5.08741212456764   -3.45071910594244   -1.48465863251631
H         6.80100576789052   -3.28739412914986    1.71258359514283
H         6.91047680088601   -2.28475775728978    3.93811232670558
H         6.19451635109429   -0.64791954324486    4.06459667786522
H         7.87263623501863   -0.74035069279644    3.50280632199838
