30
 energy: -48.312603600988 gnorm: 0.128590448379 xtb: 6.4.1 (79825abcba525fcdf90b791dcacef51065a7a4e7)
C         0.87361918681773    1.54368957112625   -0.23768832793071
C         2.22443510699450    2.02664974771125    0.17938941192954
N         2.69002823994285    3.21830422567303    0.32182693970248
O         3.11747107119818    1.03646185451795    0.36727091683237
C         4.50762636179809    1.40211918460912    0.41322353463353
C         4.98426863154943    2.10795274171513    1.68310702749787
C         5.67041963695378    1.02202063037995    2.53740773291769
C         4.90801961200437    0.76094248607208    3.76589611453562
N         4.21692155757769    0.48063085669934    4.65669852137535
C         5.80501624999471   -0.15611625583599    1.60246652388981
C         5.20216468995028    0.07711160903209    0.42952120527433
S         5.13359015816263   -0.99097333992407   -0.90855368712576
C         6.01762732230263   -2.35454806709482   -0.29279217140187
N         6.09844688090489   -3.47044538485849   -0.92738457944059
C         6.58277877348221   -2.37600623764658    1.07155088972908
C         6.55039088523318   -1.35790692756650    1.95147241450621
C         7.29712991942034   -1.43377958234701    3.25617152763910
H         0.13767566651302    2.34765628235060   -0.31777154200832
H         0.49695290029429    1.03597052822566    0.65449634424096
H         1.02826652114404    0.88354282627765   -1.09584420442209
H         1.97972734343465    3.95037031244831    0.21230710442809
H         4.63767957676852    1.87531946725057   -0.56745277811819
H         4.11960515471847    2.59212024103017    2.15368983254348
H         5.69917981652680    2.84277840154697    1.29084422539087
H         6.69737953318000    1.37785225935283    2.69095944432645
H         5.72218271042074   -3.48761091670539   -1.88372615412834
H         7.02535570380123   -3.32302835757478    1.36464538366480
H         8.34188291062215   -1.13338921793045    3.11012577243834
H         7.23112163170336   -2.48869028066554    3.53844947859123
H         6.78058898212307   -0.91826533230495    4.07182616081454
