30
 energy: -48.306558793752 gnorm: 0.128359865349 xtb: 6.4.1 (79825abcba525fcdf90b791dcacef51065a7a4e7)
C         0.82366929176739    1.79793350069836    0.30478347111659
C         2.26220233363700    2.01812336058442   -0.03292517963478
N         2.72228680142698    2.98668431522520   -0.74518760762173
O         3.10333213023102    1.06561877681728    0.41263114149665
C         4.50829959438731    1.35703045230751    0.31519241905883
C         4.99446026278814    2.12952768257702    1.54193149906867
C         5.74565886992886    1.14531742915957    2.46220986910325
C         4.93523080353603    0.70307128955890    3.60511145056973
N         4.20326442237937    0.20153142436033    4.35504681477900
C         5.78943809003906   -0.09256369511419    1.59851343103638
C         5.26001255507529    0.06504862751552    0.37847536075984
S         5.33812561331816   -1.12280727130662   -0.85394056831864
C         5.87074066453488   -2.55521127976634   -0.02655919862986
N         5.78462238969531   -3.71854811745823   -0.56849754275865
C         6.48565367152726   -2.34925203631673    1.30037386385663
C         6.60504869944010   -1.22141180118375    2.02532784310000
C         7.34348570750127   -1.14216482329003    3.33454375233167
H         0.42657345836379    2.80069295594906    0.48135366299286
H         0.52705820675149    1.13757074114072    1.12429094241582
H         0.31720482876710    1.26642341534032   -0.50585319665663
H         1.92757204290484    3.56658023517908   -1.03603445341520
H         4.66580792375642    1.88539715215069   -0.63274118571368
H         4.16495812110764    2.65726873731290    2.02868076126162
H         5.74698675268528    2.84482969914462    1.18558368336117
H         6.75257402150589    1.46547266343053    2.75963784662063
H         5.07624373948373   -3.76180238219342   -1.31199424178740
H         7.17871947693747   -3.13946508724438    1.57213245585009
H         6.67656064197430   -1.17688075385013    4.20464621706288
H         7.87094873363272   -0.18744505100669    3.41920435964709
H         8.01590956697556   -1.98823569324147    3.50737949487882
