30
 energy: -48.316756992745 gnorm: 0.124818394561 xtb: 6.4.1 (79825abcba525fcdf90b791dcacef51065a7a4e7)
C         0.89057943583284    1.74288856480490    0.35166343820306
C         2.24161429206166    1.65731479428490   -0.28023051396041
N         2.53386633170572    2.10070902658019   -1.45287543246649
O         3.15307924906751    1.30385059687597    0.64582533893172
C         4.56556178923553    1.38880077156989    0.38887167565682
C         5.32193061662920    2.24834876290077    1.40231945127128
C         5.86694545844010    1.26970895255422    2.46302883177134
C         4.96071378117757    1.05747706348390    3.59982304564170
N         4.33890312207688    1.05963389869264    4.58118277418463
C         5.91036237800646   -0.00815869134907    1.65965650880569
C         5.22293504069856    0.05049998040944    0.51177638694208
S         4.94020604173654   -1.19675206704345   -0.62856521791516
C         5.90393455800229   -2.50856014018479   -0.01995458139057
N         6.08443672773553   -3.59353836620062   -0.68681840022568
C         6.41736130273100   -2.39255001333632    1.35998136537394
C         6.54831430958204   -1.25334529229841    2.06489339489818
C         7.13404114508629   -1.21899539559989    3.45102462312321
H         0.39436812347600    0.77621153001414    0.23462283653234
H         0.33767842188023    2.46992040128577   -0.24948112344191
H         1.02794660595217    2.08356684936473    1.38181371726141
H         1.71370055611892    2.40369013072410   -1.98950683626902
H         4.76552455173468    1.73458131666896   -0.63240648520517
H         4.59079139288125    2.96917542896625    1.78878241812334
H         6.09700258039405    2.82588410526589    0.88207601313194
H         6.85588660653434    1.52453850238333    2.86539459309749
H         5.74492040979756   -3.64069387982311   -1.65581974797830
H         6.85861332283298   -3.30979587164994    1.73758737612489
H         6.41900776765544   -0.94296802443485    4.23563197888699
H         8.00224892281753   -0.55535740464032    3.50273905413373
H         7.58307285243519   -2.20304396042926    3.61800041975513
