30
 energy: -48.311022130503 gnorm: 0.126210348676 xtb: 6.4.1 (79825abcba525fcdf90b791dcacef51065a7a4e7)
C         1.00577888759197    1.40566691142215   -0.91515349495058
C         2.42427321162062    1.81959034276177   -0.69504155314984
N         3.02657938470917    2.68474512393157   -1.43385159980503
O         2.92760829961052    1.30407917006781    0.44258174689890
C         4.34932526150782    1.40222686884113    0.63606703771746
C         4.60237520048205    2.01266511067906    2.01495203381028
C         5.82165223500894    1.27252494808512    2.60269135456379
C         5.41377789083375    0.88701314384178    3.96049049066025
N         5.14850458467472    0.84504524592606    5.09079524606208
C         5.84926162334046    0.00058248128956    1.78928006836099
C         5.02672431967437    0.07193360992755    0.73478143723114
S         4.63282493424992   -1.19297058796993   -0.35187075214001
C         5.57496461229381   -2.54665910871702    0.19577895333902
N         5.30634952579863   -3.76207331277091   -0.12838209889851
C         6.57681740833012   -2.22615617399400    1.23253226855306
C         6.78900695116757   -1.10185574122663    1.94158882437632
C         7.91694432258720   -1.09861817061274    2.93826450999440
H         0.74649985118715    1.43044963440667   -1.97654355358938
H         0.39295119481869    2.22088594714525   -0.52080625002537
H         0.71526872650403    0.57167242164693   -0.27001934791128
H         2.45472597515512    2.97338920798170   -2.23516987834526
H         4.79117717893101    1.99328277722673   -0.17509149813096
H         3.71261597995252    1.80574482564902    2.62242367985630
H         4.66288920044529    3.10648846949250    1.94548713475510
H         6.73626142608170    1.87456584232645    2.67935742599925
H         4.61096937046538   -3.81788790148262   -0.88322629467151
H         7.36667778274373   -2.96360164254485    1.33705205650905
H         7.56662292812886   -0.86910425605598    3.95200551597697
H         8.71825645696041   -0.41522899447122    2.64203384520167
H         8.34524224765278   -2.10579853966679    2.94151405214419
