30
 energy: -48.317361464570 gnorm: 0.123950134826 xtb: 6.4.1 (79825abcba525fcdf90b791dcacef51065a7a4e7)
C         0.75079891277622    1.82841057033479   -0.62603581246101
C         2.24417675132555    1.86882614457104   -0.61617515429437
N         3.05523353866296    2.40025961524800   -1.46285759778414
O         2.79150980949426    1.23151825482314    0.43622682591243
C         4.22495042332015    1.26986824079974    0.54634459894100
C         4.51924521719626    1.92951805177046    1.89402618097007
C         5.77282812077917    1.23493200032619    2.46495661886904
C         5.75752406109327    1.26304683528647    3.93382510410880
N         5.73999324862617    1.27230043930786    5.09543049874422
C         5.72723269559950   -0.09641956133196    1.75385754522783
C         4.93372292443278   -0.04124671163119    0.67639564650644
S         4.88275652268656   -1.23385936310792   -0.55284387994734
C         5.74279146015815   -2.58593388673864    0.11965472321348
N         5.80977321928814   -3.75334458184973   -0.41619213380968
C         6.55376066292611   -2.36328471059261    1.33375722796031
C         6.54890404893538   -1.25078217767025    2.09148513726671
C         7.42545711063947   -1.21114708205223    3.31447303564104
H         0.38015156730408    2.40104512126247   -1.47990868056480
H         0.57656405084857    2.32574745191915    0.33206013585956
H         0.28430381797748    0.85894302521700   -0.42942443084579
H         2.62863565665895    2.76515393146053   -2.32152464477502
H         4.63475145592328    1.84510005289776   -0.29254147536434
H         3.61349572170426    1.80009532765354    2.49931692181994
H         4.70637399634836    3.00325459432920    1.76360565655293
H         6.68335549559588    1.69140323275688    2.05579306685725
H         5.26882298587598   -3.78760281513497   -1.28949494936442
H         7.17113762609786   -3.19864449368090    1.64943005159410
H         6.84112577467069   -1.53629284160967    4.18390369471583
H         7.81747494971917   -0.22117476826791    3.56577233592550
H         8.27208631600326   -1.89514090868566    3.19943653587694
