30
 energy: -48.307951240495 gnorm: 0.134098778533 xtb: 6.4.1 (79825abcba525fcdf90b791dcacef51065a7a4e7)
C         0.83606879342041    1.49420584948761    0.36129548504391
C         2.24353416538642    1.93205121190106    0.11790135899917
N         2.71060888814458    2.98361266232691   -0.45930357758209
O         3.14837001526947    1.05853048660883    0.59906495239314
C         4.53325352025429    1.41754670147486    0.45225298504163
C         5.16430344464639    2.18952435952345    1.61148528547429
C         5.73172753801486    1.11031854603123    2.55659177026012
C         4.61466746710189    0.91425814414154    3.49058137220622
N         3.75667398252928    0.52831909229320    4.17221057076217
C         5.90686033616709   -0.08335058025516    1.64845046519756
C         5.31242916488741    0.14048527065654    0.46939348946138
S         5.26247299230393   -0.99408653133217   -0.81365123750811
C         5.98869952472515   -2.47420695123822   -0.26423454228947
N         6.02062091781309   -3.58047907069693   -0.91968041149208
C         6.57141960021137   -2.35727167820695    1.08782029342440
C         6.55081677836960   -1.34767465403389    1.97783529330269
C         7.32861722422450   -1.40962584308623    3.26500441668334
H         0.29573405274250    1.00498184063501   -0.45300599407375
H         0.33214127343524    2.41416230908039    0.67014298152577
H         0.86576574570599    0.77202496209259    1.18209624646487
H         1.96065272291255    3.56345761666133   -0.85146208405931
H         4.51984718088824    1.82797514701852   -0.56456912176608
H         4.42248470850791    2.78965076058821    2.15283782507817
H         5.83855001894800    2.98944182866342    1.27912931239919
H         6.61019918251891    1.57956285903107    3.01804419333025
H         5.65636024307897   -3.70218684475171   -1.87307434601876
H         7.05569677216392   -3.28760626939629    1.36814668553336
H         8.36941175953523   -1.07321848756116    3.18346046567385
H         7.32836081835995   -2.43352443798874    3.65036938001861
H         6.82061492475876   -0.70638638888196    3.93227492945084
