30
 energy: -48.311560025841 gnorm: 0.122616091453 xtb: 6.4.1 (79825abcba525fcdf90b791dcacef51065a7a4e7)
C         0.96618711332526    1.95102174986252    0.07250039597011
C         2.41820247260758    2.15833547870206   -0.21136657274781
N         2.89620665471188    2.79674894758304   -1.22183481553862
O         3.21853061236276    1.62323443484692    0.73013569885379
C         4.64688513336131    1.52374263647102    0.59503026215472
C         5.38495340208479    2.18058934629805    1.76199242013420
C         5.90739833464419    0.99498104264970    2.59940857663927
C         5.20143399044687    0.68257350610919    3.84945471289090
N         4.83256922438612    0.26165983392475    4.86753653841599
C         5.86174093575212   -0.21400327740321    1.69579890935197
C         5.06421170363516    0.08865846686565    0.66334102907034
S         4.75612288192467   -0.90936625594937   -0.69495956646420
C         5.65514049026619   -2.34245956243347   -0.29742836977560
N         5.75565507154951   -3.36958151292151   -1.06514158136732
C         6.25432693591548   -2.47705416858839    1.04575766144039
C         6.37211114299399   -1.54227699215742    2.00708790523388
C         7.07263579769684   -1.88909928429520    3.29339866402256
H         0.45989744683791    1.40538349987515   -0.72771103649765
H         0.33197252627697    2.83379844504995    0.19135650666188
H         0.76204282527192    1.33812151249581    0.95500787102611
H         2.11903758187441    3.20107484178803   -1.75566205271194
H         4.93021477826898    2.03948389671934   -0.33033113157797
H         4.73209309414817    2.73127163596002    2.45049205384083
H         6.15150510725504    2.81404546014182    1.29716048214522
H         6.93446090625325    1.17911074510746    2.94011330746194
H         5.19246332124421   -3.22603428067005   -1.91288437917814
H         6.71295809847238   -3.45949089581791    1.10148241551282
H         8.11423729973467   -2.12309617470639    3.04163616423894
H         6.63855753817672   -2.76321638017698    3.78773653232171
H         7.21668307914801   -1.08552995991523    4.02236281955371
