30
 energy: -48.302070283245 gnorm: 0.148947035932 xtb: 6.4.1 (79825abcba525fcdf90b791dcacef51065a7a4e7)
C         0.98082618772631    1.49449176017864    0.12151896398526
C         2.38631730156996    1.68272400559123   -0.34866331042946
N         2.90533786503201    2.13236100741229   -1.43749297031490
O         3.26160382771400    1.50625928078879    0.65931409503562
C         4.68783184252322    1.50988032941748    0.47435684015165
C         5.34334927071571    2.24969522422662    1.64096035842162
C         6.02172918048977    1.23650459902785    2.58601427494720
C         5.17895739236643    1.11158476750989    3.78298129546570
N         4.50436111698404    1.04297294334354    4.72634354871430
C         5.91587335257855    0.00045541656859    1.72507596284527
C         5.22231464168791    0.11693068243652    0.58532345877955
S         4.82196806144529   -0.96716502969256   -0.67975022498903
C         5.52597838412131   -2.41588987529216   -0.02738086586539
N         5.40949537484944   -3.50436733402053   -0.70274349441705
C         6.33209878805908   -2.37246096827657    1.20937797392155
C         6.43511550022584   -1.32229904671161    2.04507203061082
C         7.24824923803656   -1.57535470222232    3.28619731843602
H         0.32626096969090    2.12848986882030   -0.48178811558695
H         0.93947365884762    1.79677192673758    1.17155052339526
H         0.66951678792880    0.45760630454902   -0.03371002784651
H         2.16100747973424    2.43256198906969   -2.07647212584738
H         4.94334730944938    2.02762799702314   -0.45795618171185
H         4.61715700602869    2.88713285463583    2.16040942635511
H         6.18258206286590    2.90304415895276    1.36937179213007
H         7.08518891330460    1.45911542912929    2.74202295485813
H         4.62694734101356   -3.44550481962494   -1.36652988268417
H         6.72652787856587   -3.38083328268389    1.28837530635402
H         6.91141853420857   -2.53684468709846    3.69258953760142
H         7.01069860026167   -0.86364293974315    4.08238232943827
H         8.30381405775951   -1.79222417932973    3.09485338071339
