30
 energy: -48.305308130813 gnorm: 0.133964626160 xtb: 6.4.1 (79825abcba525fcdf90b791dcacef51065a7a4e7)
C         0.90482044154296    1.87853590660944   -0.08921035059391
C         2.37607854851657    2.13730245494031   -0.07056922688255
N         2.95573323805909    3.20599083399427   -0.49366662660471
O         3.07250522489570    1.08014683778369    0.38844783473536
C         4.49453857055087    1.28442091611266    0.32179956100024
C         5.03334348017036    2.13506998588871    1.47248565306866
C         5.89922596219018    1.15691210961146    2.29305635413202
C         5.38587448320624    1.14047271466203    3.66957351188318
N         4.72260269045042    1.05935325267234    4.61994728356166
C         5.80101073975934   -0.18216838795440    1.60207493875833
C         5.13185728709701   -0.06323394528018    0.44807557148271
S         4.95617640098386   -1.30397016026005   -0.72054004312727
C         5.81076589931869   -2.65216060620207   -0.03345966675402
N         5.73919179939054   -3.81103342469978   -0.58695509866465
C         6.46605236168536   -2.45653307486783    1.27559279086334
C         6.39750405974024   -1.40752520957478    2.11625975678140
C         7.11688363155722   -1.49413084687039    3.43558092618017
H         0.64526402872948    1.33945756635085   -1.00376689507200
H         0.34161550281490    2.81568117965906   -0.10365138465290
H         0.68986457992062    1.29616405210054    0.81122178659865
H         2.30664341937010    3.85972523102160   -0.94506053515463
H         4.58227368874874    1.67318496796835   -0.69982830857761
H         4.19825766665621    2.64383790652066    1.96977450521694
H         5.63269871363734    2.97358565857283    1.09485929268618
H         6.91081496365310    1.57065922085600    2.39475203686908
H         5.35835604701448   -3.63994912873737   -1.52618504820281
H         6.72104777925128   -3.33867030948246    1.85476542946955
H         7.08926542172556   -2.50682696569391    3.85600499504568
H         6.80556782044534   -0.81609198585411    4.23571862174573
H         8.19092060356766   -1.41764825240537    3.23947635738053
