30
 energy: -48.307968067110 gnorm: 0.129614279490 xtb: 6.4.1 (79825abcba525fcdf90b791dcacef51065a7a4e7)
C         0.98143759302062    1.43029712915416    0.53553325673120
C         2.34280223991568    1.52415956731480   -0.07256555216152
N         2.55686056564739    1.23625728336576   -1.30884914189613
O         3.31564956708344    1.62301770894589    0.85322054504165
C         4.70235204133670    1.68155283128602    0.47642014801316
C         5.45107377163113    2.38637739848061    1.60806984826780
C         5.90324352543511    1.24727748619843    2.54501987339008
C         4.93663015940374    1.03673666444373    3.63126591742877
N         4.21049164101131    0.65567595735169    4.45420920261448
C         5.92477014605763    0.05344888366789    1.62060238209040
C         5.17233906913587    0.26230815557308    0.53255310435905
S         5.09222804288772   -0.80687944218383   -0.80399933898973
C         5.93644007409994   -2.22672599516130   -0.26421994936642
N         6.02060084233884   -3.24823977738129   -1.04132527882813
C         6.34199621163393   -2.29847362240077    1.15411184533408
C         6.40861504314431   -1.26347761116422    2.01212247202048
C         6.81545406777739   -1.45673100408165    3.44835043123410
H         0.41616522975080    0.55177136415816    0.21452189557977
H         0.52833362212439    2.31754101625793    0.08481751119969
H         0.93329756478423    1.36363250722261    1.62611997766847
H         1.73767767673142    1.25949506520110   -1.92597320762020
H         4.80266711014269    2.09935599676618   -0.53250788278717
H         4.80843055476730    3.10498614240204    2.13163497254578
H         6.37140974870490    2.89483004463476    1.29280099078194
H         6.89716315215980    1.42842263813374    2.97414818206944
H         5.76630129071673   -3.11477827583101   -2.02822869346055
H         6.55614391245138   -3.30052247649257    1.51281570588138
H         5.87623045771454   -1.62282823859706    3.98996216255158
H         7.35155343277270   -0.59460724755105    3.85604468883744
H         7.27076328391661   -2.45195334163714    3.45773049196151
