30
 energy: -48.314253511013 gnorm: 0.122031282634 xtb: 6.4.1 (79825abcba525fcdf90b791dcacef51065a7a4e7)
C         0.88523014287067    1.68696006683118    0.32345691569111
C         2.31118540659333    2.06436807227079    0.08655439055594
N         2.69851153637761    3.12579040469378   -0.53026560787708
O         3.18867343775350    1.07355889086433    0.33474117021764
C         4.58945513985422    1.39910719610642    0.32141515406885
C         4.97971840964713    2.09458001469261    1.62602432550700
C         5.59249832246032    1.06195543742440    2.59456379542931
C         4.65397417834091    0.62166393291526    3.63567624390429
N         3.89051503013170    0.19854154055991    4.40236890234376
C         5.85178319241680   -0.10544578647792    1.67250980435428
C         5.23079838939854    0.05895181232807    0.49735991729081
S         5.09557415538238   -1.05897911718763   -0.79411101870255
C         5.98239055970010   -2.43518504876407   -0.21132985817530
N         5.99796961675264   -3.58530687837456   -0.78704090522742
C         6.75968956338018   -2.27043467452465    1.03364089040540
C         6.68390188954598   -1.27215635298904    1.93338178073968
C         7.37541858526449   -1.34312558636253    3.26844119519728
H         0.74993407104053    0.67666667702525    0.71765343819973
H         0.37308635924307    1.64766297551329   -0.64184826428233
H         0.51118078480919    2.33155591366312    1.12390947702544
H         1.92497129510428    3.77880428987111   -0.69655172920487
H         4.98216602196743    1.91353501141792   -0.56385348273580
H         4.11827856385706    2.67919286823022    1.97194118452515
H         5.74714906925875    2.85635198560759    1.43710501051119
H         6.49687381994242    1.49428915436620    3.04181474377047
H         5.51466503576526   -3.58329276054109   -1.69416339602492
H         7.47594850258081   -3.08524348311745    1.07474254861088
H         8.06427463772202   -0.48970004365512    3.25378747430682
H         7.90382700499787   -2.28986911605225    3.41450877797019
H         6.70191734368488   -1.16274908870224    4.11207758522720
