30
 energy: -48.307967092592 gnorm: 0.126067962930 xtb: 6.4.1 (79825abcba525fcdf90b791dcacef51065a7a4e7)
C         0.80474056780700    1.63313017354329    0.35084034618358
C         2.22065289553731    1.99617434883175    0.04213461899761
N         2.53155622709679    2.92910630423678   -0.78857766004405
O         3.16181991907772    1.20751387036820    0.59485881212417
C         4.52983162522483    1.20373278384755    0.15114908449418
C         5.40313102290381    2.16923879910954    0.95310871266639
C         5.85653011861573    1.28496356913168    2.13309516350911
C         4.94510574720924    1.32771392961758    3.28464947812808
N         4.26165939949368    1.61632194654492    4.17870013097991
C         5.84563191977764   -0.12565333557024    1.59431968921673
C         5.09671328230621   -0.14016735084426    0.48412323060099
S         4.92995198640949   -1.50456872059881   -0.53888796638302
C         6.07670686430776   -2.65732915925946    0.07439549735593
N         6.51348050897412   -3.67151850297081   -0.58523689780808
C         6.44656565205283   -2.44565059358485    1.48849777616047
C         6.38800541145337   -1.32098573729335    2.22574720294989
C         7.00433937714901   -1.35706892682531    3.59849847456227
H         0.31997978416813    2.53792327621631    0.72600042229729
H         0.69831621449519    1.03690369963618    1.26124545085765
H         0.31922560715534    1.41795664813451   -0.60525410896779
H         1.69048822571000    3.41610890299814   -1.11702217399638
H         4.60006237360987    1.40485777350659   -0.92457148941042
H         4.81973018157313    3.06008096268815    1.21683768053003
H         6.29083178542941    2.47667097514826    0.38529741433169
H         6.80298390685393    1.54261780097004    2.62572121316640
H         6.32068617067864   -3.63152269174581   -1.59404275845943
H         6.84762420624567   -3.36744609248008    1.89846693019720
H         6.30321363646104   -1.54484329114776    4.42083418725546
H         7.52133716708064   -0.41161766084034    3.78746856858325
H         7.77972160190069   -2.12894682073076    3.56936278779288
