30
 energy: -48.309756267530 gnorm: 0.128008572983 xtb: 6.4.1 (79825abcba525fcdf90b791dcacef51065a7a4e7)
C         0.99612549695112    1.74071810279998   -0.61490219667133
C         2.45206251253211    2.06253116435325   -0.52221033723818
N         3.07469514339786    2.87566447020500   -1.30211330540720
O         3.02450162021023    1.35082838406296    0.46727304906409
C         4.46047665143491    1.41369032199210    0.51598367094299
C         4.92384589294372    2.15093518018907    1.77286548719449
C         5.88969333129064    1.18853464233308    2.49453394952632
C         5.48527456138649    0.93267476134745    3.88362735336005
N         5.35276163829598    0.83763258289568    5.03390009090819
C         5.79092421530490   -0.13924928137594    1.78216302876300
C         5.07405495218406    0.05772286532454    0.66819428184071
S         4.70023735045187   -1.17743710248324   -0.45901136640178
C         5.48936980219215   -2.59770764163792    0.15752861674425
N         5.33302690554245   -3.74940556180918   -0.39348403445966
C         6.44300404633520   -2.47262889303932    1.27834333351392
C         6.52192082891487   -1.37086797310397    2.04758456391355
C         7.47424767469770   -1.44533093758992    3.21083194142032
H         0.65047385659477    1.20919374912706    0.27526377859081
H         0.89994896490202    1.16291312414981   -1.53823371247719
H         0.38959323324644    2.62818579882087   -0.81654726083104
H         2.36473813143115    3.37822553274501   -1.84602150771519
H         4.71446162648070    1.98194034246289   -0.38686842603259
H         4.00939130890791    2.23310804257833    2.37330674772320
H         5.35790675542336    3.14920472483924    1.63149386924344
H         6.88844503305974    1.64387207938318    2.49259808599271
H         4.65872995844263   -3.62521857787105   -1.15922538142049
H         7.00585674084907   -3.36071693393319    1.54876168072966
H         7.76314900241027   -0.39462112162778    3.33580177269004
H         8.28069779258493   -2.08068708748288    2.83289638392804
H         6.98231754626106   -1.98430054487099    4.02653928888360
