30
 energy: -48.310821198288 gnorm: 0.128486066500 xtb: 6.4.1 (79825abcba525fcdf90b791dcacef51065a7a4e7)
C         0.98632655029155    1.95188356518775   -0.64951175929768
C         2.46676856736570    1.75444139543794   -0.61463992032111
N         3.25170606086529    1.80999471185752   -1.63341014337258
O         2.89098817256517    1.44725199451836    0.62590719746551
C         4.31804224029394    1.46975912890202    0.80299125073107
C         4.73651178712406    2.05577262512987    2.15186647136823
C         5.87187861894242    1.14773309879781    2.66789729603767
C         5.73163682340470    0.97561990181799    4.12024318114863
N         5.66474068458278    0.97634049739964    5.28008991176896
C         5.72307408177633   -0.10548714854054    1.83872058040547
C         4.85379336227517    0.07326559559676    0.83571289095441
S         4.61444366060785   -1.00118108315905   -0.47738587726243
C         5.50814782747787   -2.44066548073703   -0.09112494337551
N         5.60920502670647   -3.46492435778637   -0.86258286650209
C         6.20469755870599   -2.38867321806548    1.21018357391073
C         6.45411992955160   -1.35072894464664    2.03012089605482
C         7.56928820817861   -1.47957788011240    3.03282387492194
H         0.69603204002237    2.72684029745352   -1.36334634726555
H         0.74197853808607    2.25189433813493    0.37319894856301
H         0.42192339363123    1.03361811997600   -0.83492664366330
H         2.67740669575094    2.05897476326041   -2.44620278999635
H         4.77320795240024    1.97216385128108   -0.05896701008122
H         3.80052832612981    2.07933060648897    2.72360876513881
H         5.04560653447002    3.10091282575410    2.02117886658956
H         6.78584762693484    1.71670926670191    2.45396351844899
H         4.93076461398999   -3.41254976939584   -1.63292960403273
H         6.81879730205140   -3.27873044992981    1.30666799224638
H         7.46896081137939   -0.74638789421012    3.84241599454322
H         8.41062382491218   -1.01329845237904    2.51165941997926
H         7.66812587670857   -2.52454547473003    3.34288161640098
