30
 energy: -48.314347856736 gnorm: 0.123894552748 xtb: 6.4.1 (79825abcba525fcdf90b791dcacef51065a7a4e7)
C         0.99400562597503    1.52537987825556    0.36335908750669
C         2.42586602729466    1.63053355360021   -0.04971056166003
N         2.93950295651062    1.72970103237473   -1.22591153958374
O         3.19355292666114    1.60147093546538    1.05622658509142
C         4.62478025521602    1.71833355234513    0.97697888395594
C         5.24796883756226    2.10505174982007    2.31864876770496
C         5.61511698502666    0.75128701528922    2.96083632226551
C         4.61669543973539    0.20981596400439    3.89280359538956
N         3.72629676002767   -0.19031423821703    4.52272911307408
C         5.80021299441169   -0.13000425353722    1.74868810927633
C         5.27367892725440    0.41228793325891    0.64310801781330
S         5.16926820955716   -0.33100240632274   -0.89720703365834
C         5.87328583820198   -1.89714869299738   -0.62969045404802
N         5.76074431679110   -2.84122016963071   -1.49602162933136
C         6.62254978670312   -2.13558068436151    0.62052654043331
C         6.58195143723389   -1.35870002602079    1.71900072906569
C         7.22973414434125   -1.70414486269653    3.03302556370979
H         0.69886328158950    2.49896659477396    0.76261910792172
H         0.81917068790308    0.76292628121662    1.12739237673996
H         0.37751449310042    1.31081178163365   -0.51416028496618
H         2.34474857898982    1.62435957662454   -2.05513595099159
H         4.74142298037692    2.44474105353200    0.16378452879406
H         4.58010890487490    2.74407170818563    2.90951754959491
H         6.17780496746992    2.66768198548610    2.16441231248547
H         6.46409116640578    0.68992026824360    3.65388606787215
H         5.19852275735618   -2.49559917698090   -2.28400110483410
H         7.13997017727642   -3.08619473507449    0.53544547862630
H         7.92277326802484   -0.98536403679267    3.48703381279196
H         7.66730526734433   -2.69778549654203    2.89854748455969
H         6.35413024714175   -1.71020780047056    3.68964040950775
