30
 energy: -48.311755325977 gnorm: 0.134140118414 xtb: 6.4.1 (79825abcba525fcdf90b791dcacef51065a7a4e7)
C         0.84267266036258    1.92873471559521    0.80677239041613
C         2.23406925347725    2.20088484118866    0.33575450472366
N         2.64879125240293    3.06283006397378   -0.52573368521488
O         3.03278802380941    1.18772062533304    0.72154116461870
C         4.42878855799925    1.28069785009197    0.38854509967176
C         5.24013374526614    2.09985203127474    1.39288485984228
C         5.59542467118175    1.01773301642604    2.43339831295017
C         4.43510575824029    0.66873738896011    3.26433837844492
N         3.57647233624983    0.38546246907819    3.99387524128825
C         5.78926759509891   -0.21852724283652    1.58822180731801
C         5.12339520345476   -0.04339415441070    0.43949716672664
S         5.21958016982847   -1.13108886194472   -0.88096524973554
C         6.27563659069281   -2.37000476440819   -0.27281050014518
N         6.76236695451895   -3.31258898369460   -1.00019945038531
C         6.58437387152150   -2.50599709218752    1.16506152998828
C         6.52346772149010   -1.42069451198234    1.95894175165472
C         7.18307067032776   -1.49851676420028    3.30967609033756
H         0.95745591030231    1.34820414512430    1.72557472001586
H         0.23766855680098    1.43537360304298    0.04112596213297
H         0.19679260496240    2.75537840202178    1.11602988684869
H         1.99513204358194    3.80944073251957   -0.78601211425282
H         4.47500002090648    1.80363438932648   -0.57424264491319
H         4.62322127374382    2.91328628199933    1.79444804564509
H         6.19116943215312    2.50481929261947    1.02346708383484
H         6.44748759643194    1.33717402396793    3.04722818461697
H         6.38993720890482   -3.35046581061913   -1.95744551006943
H         7.11797856032212   -3.40288075562391    1.46421924368995
H         8.12514597074537   -0.95122654345429    3.18302661228075
H         7.39520005373810   -2.50358021672123    3.68613735582869
H         6.56228537170425   -0.93324341640712    4.01178264921126
