30
 energy: -48.310525245037 gnorm: 0.129407786535 xtb: 6.4.1 (79825abcba525fcdf90b791dcacef51065a7a4e7)
C         0.89491153740314    1.53421883875021    0.25016978944723
C         2.29244897178989    1.88497743256385   -0.14450165816156
N         2.86286905054809    2.66795651344203   -0.99224601945920
O         3.12949622537483    1.25269146574377    0.69980344575092
C         4.52695118302488    1.47101068997532    0.43940948674707
C         5.05084026059951    2.18294221110364    1.68708199770592
C         5.68105857804148    1.10816724864149    2.59678804646043
C         4.87142402602725    0.76893252116205    3.77492683098794
N         4.33690353657922    0.66076748675562    4.80074759143048
C         5.86507719582196   -0.07073739898127    1.67128342520483
C         5.22532622701316    0.15011740084472    0.51561573380888
S         5.04461463514933   -0.93998540657772   -0.79395348059926
C         5.79230047482247   -2.40034426842304   -0.22094573929685
N         5.96947312982215   -3.46737504085633   -0.91702140296671
C         6.60099913532434   -2.29820889526594    1.01066436388133
C         6.64462495128696   -1.28131629205214    1.89149538664189
C         7.20163655465692   -1.59703761819800    3.25372654929975
H         0.71571064415709    1.87959125983301    1.27144036559100
H         0.77672088278103    0.44877558362279    0.30927576142196
H         0.06840113531250    1.96983777474130   -0.31838779645504
H         2.23400617506108    3.17176276947980   -1.62718968112409
H         4.80680473843693    1.97087773976623   -0.49566981244268
H         4.26133061242112    2.72465616004909    2.22255355038716
H         5.78594198732765    2.93646034482833    1.37599884116653
H         6.60144013859470    1.50592253723738    3.04347519674980
H         5.41489158715204   -3.53042534619149   -1.78011036677338
H         7.18576629352741   -3.19828522758935    1.17357410511064
H         6.38500215722494   -1.98072142597106    3.87739917509267
H         7.58714238056749   -0.67689277092940    3.70271789842357
H         8.09346713599770   -2.22723139049926    3.18054193543885
