30
 energy: -48.313323261301 gnorm: 0.126734259184 xtb: 6.4.1 (79825abcba525fcdf90b791dcacef51065a7a4e7)
C         0.96226135550416    1.54885797695588   -0.32382988808740
C         2.36005351839853    2.04471553446478   -0.14435735468240
N         2.92624111404962    2.83668222595206   -0.98657240344365
O         3.03136251382755    1.53358989298754    0.90510898221384
C         4.46754291595313    1.54986462355442    0.83115145973644
C         5.03610716605198    2.13450357867176    2.12456749088361
C         5.81286263499655    0.97777416844816    2.78676805479698
C         5.33447404004430    0.44979379518460    4.07167293387576
N         4.97932508991797   -0.07968535555459    5.04287898476306
C         5.81229252164404   -0.13557472741591    1.76662492071874
C         5.10700767285686    0.20573738105150    0.68048239548672
S         4.88254484329612   -0.69022963999109   -0.76271270632945
C         5.65213974964139   -2.21427999237334   -0.43865356618488
N         5.96012562485532   -3.09061035764569   -1.32840411533649
C         6.27655972718816   -2.34796372445442    0.89308107423357
C         6.32914923275306   -1.48789560978345    1.92717705006935
C         7.18663473609946   -1.84526721722476    3.11149963160999
H         0.45125770561005    1.49628271444831    0.64079427370903
H         0.89301138384641    0.54870682551607   -0.76035219651203
H         0.40813394257315    2.23515705171406   -0.97041895702540
H         2.39867562047638    3.14154282168397   -1.81190711318453
H         4.72096221245943    2.09278835837312   -0.08730970644194
H         4.14602577154004    2.34705586914729    2.72961785485004
H         5.61692244830776    3.04777836235578    1.94148369898338
H         6.85600486078016    1.25108964285238    2.99169226276788
H         5.50123067048517   -2.81797539075325   -2.20678000365187
H         6.76566400459945   -3.30206881726291    1.06363951842847
H         8.14481758877651   -1.31162842504912    3.12520543015987
H         7.49524039519765   -2.89274844339397    3.04501519784190
H         6.70402925378009   -1.56569588241537    4.05319694161330
