30
 energy: -48.307282099793 gnorm: 0.125224385923 xtb: 6.4.1 (79825abcba525fcdf90b791dcacef51065a7a4e7)
C         1.04212035167707    1.58770721790360    0.98148790295859
C         2.37975205131192    1.92547037482579    0.40828156227942
N         2.66302401511871    3.09444804320161   -0.05036210595133
O         3.30901982159670    0.95660364785351    0.51336930403484
C         4.65420453000889    1.30333955752518    0.14107779256314
C         5.28334010973439    2.18111871707470    1.22352184590966
C         5.65578335644571    1.18880915651588    2.34445414632920
C         4.40799570276417    0.89873078027173    3.06381486039061
N         3.45919490441477    0.64895920744304    3.68599753375590
C         5.90217517839128   -0.08710712514685    1.57532051055167
C         5.45871853888042    0.05466557395201    0.31958459905902
S         5.32837055970361   -1.06845330065675   -0.96788025274413
C         6.06556773543855   -2.45313962833434   -0.22008075964864
N         6.17517673437487   -3.51792287720173   -0.93330487591002
C         6.59872546526905   -2.39112853663029    1.15585021511908
C         6.42356268119544   -1.37291925677270    2.01863924908748
C         6.90485423977876   -1.43953544928030    3.44325721017071
H         0.19040978847369    2.14312101881473    0.58087177116748
H         1.26717392132060    1.86440773868151    2.01514032036711
H         0.76908080546143    0.53296456821787    1.07692573451275
H         1.93334368307464    3.77646837510057    0.18385487303595
H         4.63379887966723    1.71882675678207   -0.87357109889448
H         4.58257781282861    2.99502874335563    1.44711063538452
H         6.16833441036145    2.68648990208622    0.81569600930212
H         6.37244756105611    1.61938797855359    3.05567506207990
H         5.80059480204648   -3.48539355488445   -1.88990761728773
H         6.87492471260418   -3.34000569451581    1.60526731139185
H         6.15915872149806   -1.94584639907902    4.06828518017201
H         7.03306690575414   -0.42647913007503    3.83588033142546
H         7.80398980003293   -2.03531163813151    3.62891263444417
