30
 energy: -48.309462787387 gnorm: 0.132092561867 xtb: 6.4.1 (79825abcba525fcdf90b791dcacef51065a7a4e7)
C         0.89532488748181    1.88484022729229   -0.19956829579916
C         2.37937452105636    2.01509917796549   -0.31153851648640
N         3.11671144159494    2.64770707619336   -1.15607823553101
O         2.93682656995203    1.43168008014997    0.76649402198130
C         4.36402826648721    1.49970171072517    0.93025334999956
C         4.74929127630262    1.91072209184187    2.35174119987772
C         5.78840054120406    0.89722995607773    2.87420381621476
C         5.01489751695057    0.22503984355479    3.92703475177954
N         4.40099561101586   -0.33139035551288    4.74142410399707
C         5.93791660787928   -0.08796875423269    1.73962611510558
C         5.09788846849829    0.20991534984991    0.74000415064081
S         4.76184792546377   -0.77701622802957   -0.61977355150207
C         5.83458061659735   -2.13374481714932   -0.45079945975759
N         5.91257882067072   -3.19540030343039   -1.17278987700354
C         6.74569589915533   -2.11388165396048    0.71142392981609
C         6.79671422329711   -1.26437902662495    1.75429484098862
C         7.58959510361920   -1.67729306156719    2.96526873058827
H         0.57781567891727    1.74825662535476    0.83721590763989
H         0.54893069730032    1.03555808652695   -0.79486697742482
H         0.37168644297553    2.76342901960851   -0.58689961096555
H         2.58331173346302    3.05233374648273   -1.93338430457565
H         4.68410368456652    2.32768063110286    0.28638917228445
H         3.82683099682984    1.85256530451505    2.94266769814487
H         5.00285064764290    2.96544145588656    2.51970430610121
H         6.72142988322951    1.43375948715810    3.08968769209240
H         5.34953474522458   -3.05162835640104   -2.02059268600062
H         7.38495878293943   -2.98999875355057    0.66252090397513
H         7.74197703888209   -0.87580574548116    3.69839247174329
H         8.58870123597953   -2.06229693342798    2.74069465269334
H         7.01798762749972   -2.37197552095585    3.58860105238650
