30
 energy: -48.308060908006 gnorm: 0.127733621804 xtb: 6.4.1 (79825abcba525fcdf90b791dcacef51065a7a4e7)
C         0.88579097811807    1.63509460524646    0.08709534523025
C         2.36217590967352    1.70859701904170   -0.12922143707317
N         3.00680666296126    1.97595211914033   -1.21092299009975
O         3.05459070172008    1.49358220099637    1.00550986931260
C         4.48342029443211    1.62760103002086    0.91152265831807
C         4.98274869636949    2.05091179754908    2.29335914814718
C         5.48034640261850    0.77484034673163    3.00323210127766
C         4.54032847528323    0.25754224484349    4.00690947136289
N         3.99920745373356   -0.35834580531610    4.83006802619990
C         5.74732840186384   -0.18907804252603    1.87194091052943
C         5.16801248399046    0.30486552991340    0.77010664235010
S         5.07084964956303   -0.40386234069766   -0.78688292606058
C         6.01322179982377   -1.85964823657842   -0.67444567528593
N         6.00953056481406   -2.84408657739989   -1.50229449189012
C         6.69811720929409   -2.04168375564316    0.62134363317417
C         6.54833275223396   -1.40334730737969    1.79689807411187
C         7.50314841507281   -1.69511677628995    2.92331417406317
H         0.59328582952318    1.97572400944553    1.08348934638871
H         0.60836782993862    0.58393376431666   -0.03015178702083
H         0.34429267501353    2.23193367133708   -0.65229883078486
H         2.52680539690571    2.03711904167371   -2.11552240686111
H         4.57247402580560    2.35094211596418    0.09212930246237
H         4.15606941106732    2.54193160652742    2.82157328644071
H         5.83435171957097    2.73330165704084    2.17481284305228
H         6.32174619112419    0.91847325246947    3.69334577195544
H         5.40811662776449   -2.68316404745195   -2.32013543135842
H         7.42321644762584   -2.84792916323444    0.67453245797121
H         7.37176561465147   -1.25343008690791    3.91866534963952
H         8.53871439602280   -1.41836400512187    2.70448659728797
H         7.54944837598917   -2.78092616604828    3.05268281479067
