30
 energy: -48.308445606709 gnorm: 0.123166840559 xtb: 6.4.1 (79825abcba525fcdf90b791dcacef51065a7a4e7)
C         0.78658052900798    1.71929160842076   -0.11188374770026
C         2.20680402797349    2.06527993419569    0.19660500555204
N         2.66046422574723    3.26982529587486    0.17740337278194
O         3.00961816805482    1.00103615189703    0.38676120351624
C         4.41654594325913    1.29780765532377    0.41556311363608
C         4.84482497081022    2.01695935755246    1.69516885039674
C         5.69870161174712    1.03685065573181    2.52592938207130
C         4.86386669439050    0.66628036312489    3.67672372255071
N         4.34539172936262    0.44687955985184    4.69297519460161
C         5.98371401158175   -0.08265146565236    1.55344763425797
C         5.26563802037018    0.06612596316170    0.43279688829261
S         5.32425227563037   -1.02173985978965   -0.88972518926892
C         6.01204375081657   -2.47377917003671   -0.22749810742936
N         6.14873875253149   -3.47801676446376   -1.01951292301987
C         6.49594074369122   -2.50794831795854    1.16748030051592
C         6.54877641113496   -1.37975167430594    1.89974922055681
C         7.27796997839092   -1.38968748444431    3.21648519897710
H         0.26427587799947    2.57738597531299   -0.54230280793092
H         0.17020121211415    1.60839873362036    0.78445821497083
H         0.75167487000550    0.91681481470809   -0.85414624880634
H         1.96116657121104    3.99465753373551   -0.01764464691907
H         4.57699202240367    1.87133395633376   -0.50524251534803
H         4.01728271450414    2.30411869971646    2.35564034630462
H         5.43755918776736    2.87703613234699    1.35772115744404
H         6.60693106824489    1.55403735877864    2.86130687457949
H         5.80596382336123   -3.47696579543669   -1.98851386574058
H         6.94237379346365   -3.47668108012743    1.36967815115461
H         8.26119027091640   -0.93178787599337    3.05315010965582
H         7.38116955821960   -2.41519220435268    3.58331544234395
H         6.76824998685375   -0.81324885324529    3.99479490368339
