30
 energy: -48.310391496652 gnorm: 0.138371355547 xtb: 6.4.1 (79825abcba525fcdf90b791dcacef51065a7a4e7)
C         0.87422176766655    1.55658708535173    0.12552549242444
C         2.29957259414549    1.98915324105658    0.01076677066693
N         2.83057645492694    3.12682173079482   -0.27357653628429
O         3.21899834551713    1.03396653467511    0.24647718486638
C         4.61904804011106    1.32785356948060    0.09869382852438
C         5.08474207346442    2.14505186153352    1.30422647757393
C         5.75315541111797    1.21502174842393    2.33773944098973
C         4.89509221971299    1.03338693751577    3.51644027557949
N         4.16327053606866    0.88734830215241    4.40685018101364
C         5.88819004357522   -0.07921731230149    1.57161364717348
C         5.23527933069740   -0.00059397697874    0.40492948998317
S         5.03466338739478   -1.28590768784863   -0.71027194556043
C         5.89233861633550   -2.62634919025150   -0.01196702679886
N         5.87893750435141   -3.86557198999710   -0.35636999346005
C         6.45351649489725   -2.40749702799714    1.33654018981618
C         6.51375630438020   -1.29033713179728    2.08497989374963
C         7.33991843237976   -1.13968219048386    3.33412954185861
H         0.55656172181130    1.14778746138353   -0.83695236274191
H         0.19618456181187    2.40134694707462    0.27484370950553
H         0.68704151068944    0.81445587233699    0.90677183289949
H         2.18686791021042    3.90692994384373   -0.44537059464309
H         4.90160727787760    1.77222483822724   -0.86320680139527
H         4.27690844843880    2.79092959158180    1.66995323821458
H         5.82250348094193    2.84911480371131    0.89809800362491
H         6.65134860114086    1.73483868346372    2.69534291204037
H         5.19496013763198   -4.05982596274600   -1.09859566273642
H         6.94645467556597   -3.25290076761409    1.80657644623216
H         6.93854032870783   -0.33186896670584    3.95815354643229
H         8.33799132167505   -0.84846468573183    2.99366311749659
H         7.37530617341340   -2.10093829245290    3.85623717367865
