30
 energy: -48.306203784496 gnorm: 0.134931326994 xtb: 6.4.1 (79825abcba525fcdf90b791dcacef51065a7a4e7)
C         0.87594758640699    1.69231615453932    0.17223592641710
C         2.30828140418467    1.97194392527207   -0.14735156647880
N         2.76790004370320    3.05594274164051   -0.66773899932573
O         3.18091429932151    0.99012295551849    0.14899985982899
C         4.56005129428576    1.37493340814362    0.28409506900577
C         4.86657236658474    2.13980383381907    1.57212107921564
C         5.66064617006318    1.16279935949866    2.46363130537080
C         4.88427324960883    0.79174332028378    3.65449729595421
N         4.22323304888599    0.30944638916682    4.47920062664080
C         5.85499161004957   -0.08915745856219    1.64200378242206
C         5.24508190207738    0.05638242840406    0.45859589749370
S         5.10044351691231   -1.12618212810652   -0.77289633928877
C         5.90544173951052   -2.46541524452571   -0.01233569235780
N         5.73690757987183   -3.66193744733064   -0.45324044093302
C         6.63499484138338   -2.37369288407708    1.26853427153320
C         6.69246353042026   -1.23215650442801    1.97946963040994
C         7.43164911322449   -1.23059021431880    3.29065909921455
H         0.42856774267298    2.54607455115118    0.68734420079897
H         0.78559028716156    0.87398105369735    0.89182805226519
H         0.26164366203063    1.52499913604343   -0.71702035508732
H         2.06229248626214    3.79685792590546   -0.59286992873973
H         4.90904088777049    1.81868210682074   -0.65603881821530
H         3.93348124087458    2.57285674955326    1.95332363471658
H         5.55511100799359    2.96633480157652    1.35372246740408
H         6.63895074569548    1.48819974612644    2.84029513490234
H         5.35365878287165   -3.57024135293702   -1.40254059193950
H         7.05190916184667   -3.32269029539507    1.59135924484218
H         6.78491140076468   -0.94370414583169    4.12881138655659
H         8.25186663001870   -0.53473458018495    3.09090256206964
H         7.97223959540222   -2.16605198872545    3.46540222224063
