30
 energy: -48.306710000020 gnorm: 0.139649638263 xtb: 6.4.1 (79825abcba525fcdf90b791dcacef51065a7a4e7)
C         0.98449984849114    2.07870858263775   -0.62235249772714
C         2.45749608413185    2.22934785561098   -0.42361165681659
N         3.25360248573262    3.23666054618089   -0.51657159306120
O         3.01551315648272    1.13985108583988    0.13754651289713
C         4.43396532920706    1.23483772130181    0.35507725660205
C         4.65137607373036    1.96160412955993    1.68268265845102
C         5.81528304771813    1.18473471689946    2.33204843858811
C         5.44636946254813    1.11137341000268    3.75230200220993
N         5.21989841100470    0.92375380585094    4.87623696700312
C         5.71871016269810   -0.18002495353411    1.69303159102544
C         4.90631284633742   -0.15814615957162    0.62853271479045
S         4.47227842867310   -1.52404516082782   -0.31055533209758
C         5.64732227228593   -2.72285977226367    0.13903945176561
N         5.88235777080133   -3.79903872351103   -0.52508652935098
C         6.60541236535128   -2.41057137246384    1.21877456549703
C         6.55663547956515   -1.32693890608429    2.01576800395776
C         7.48228725213709   -1.28260563746110    3.20186199932474
H         0.51959891214213    2.96311722921394   -0.17954653072579
H         0.62602828113504    1.21345165328793   -0.05801377992886
H         0.85247380822835    2.06810862635911   -1.70798493858208
H         2.78429332887321    4.13835000617709   -0.65494697452392
H         4.89876441510601    1.66523280800413   -0.54006532891705
H         3.66325315206879    1.93771712365835    2.15865721019243
H         4.92419672764348    3.00308630281156    1.46862512343550
H         6.83495151656392    1.54510745869441    2.14430233922654
H         5.19836897619264   -4.02432053657739   -1.25848002514293
H         7.31494676164009   -3.20198471714238    1.43980728566225
H         8.46755517507632   -0.85946361177557    2.97105800062064
H         7.50040242691433   -2.30875772002931    3.58075282466910
H         7.04616429957275   -0.56389435730742    3.90265642941526
