30
 energy: -48.310476409639 gnorm: 0.131781702703 xtb: 6.4.1 (79825abcba525fcdf90b791dcacef51065a7a4e7)
C         1.09087663844850    1.42565598047612    0.60234594975197
C         2.43151753241439    1.27357532468096   -0.03910669000711
N         2.70359051403201    1.05444025478919   -1.27808284854303
O         3.41962321551652    1.63769788788263    0.80014694996754
C         4.75605030421873    1.68720764453513    0.27112892282788
C         5.58972209488565    2.43506246894540    1.31213682829547
C         6.02991419562862    1.40055680238312    2.36850342698577
C         5.11349642737523    1.31347141170021    3.51357719054040
N         4.33222295196705    1.16356539313526    4.36025304825114
C         5.92134667225061    0.12153950830943    1.57316344558225
C         5.36964328159342    0.32632615059849    0.37012073801689
S         5.20139770662132   -0.89043210390483   -0.82451104885749
C         5.62327816002083   -2.40387297555554   -0.08185797669282
N         5.56564978340307   -3.57693258415814   -0.60633510585009
C         6.14679711059551   -2.30772142108494    1.29581084299071
C         6.22590587451244   -1.21203859588686    2.07366558554655
C         6.59054653414006   -1.40529968394299    3.52118171935950
H         0.43919340371221    0.54961467647750    0.64977224621760
H         0.44919305338048    2.17096757921484    0.12443130898145
H         1.13076634205282    1.74457869806621    1.64773494059464
H         1.88987680753274    0.72686209602247   -1.81006524179115
H         4.74897718327786    2.21204342908811   -0.69170841371082
H         4.90046084362659    3.14043166609446    1.79263916755022
H         6.52960238594364    2.87757034062813    0.95752622468742
H         7.03072924573490    1.47151287270644    2.81367235522405
H         5.12921631409304   -3.63516779230273   -1.53509399434691
H         6.40033563079526   -3.30676829090403    1.63677004783292
H         6.68393344960183   -2.45713777503661    3.81780952914734
H         5.87782611641622   -0.88924251216418    4.17125026347625
H         7.55230109833420   -0.88357152089975    3.49491662319617
