30
 energy: -48.308904009361 gnorm: 0.122220762061 xtb: 6.4.1 (79825abcba525fcdf90b791dcacef51065a7a4e7)
C         0.97099829086586    1.84200296944858    0.64852639281939
C         2.33209439642916    1.98149741410524    0.04863747414186
N         2.61206832194939    2.89367561411894   -0.81545241759807
O         3.13149275922712    0.96635008279939    0.42774551900263
C         4.51939167930593    1.12381095885163    0.08526731861207
C         5.20788197558876    2.12865722222890    1.00952812765683
C         5.82933028705425    1.27494135894612    2.13418481196212
C         4.96818157911101    1.29677446336889    3.32437199251962
N         4.04304520258070    1.44582679810953    4.01112241993266
C         5.86301964626865   -0.14161811778155    1.61220579969217
C         5.10856402303009   -0.18527536418794    0.50653102754067
S         4.97122478599438   -1.47660356421830   -0.61130694915771
C         6.08957350416023   -2.63977096350452    0.03395091823719
N         6.65565638472769   -3.59912473853685   -0.60921052159421
C         6.57165445612272   -2.44510642165488    1.41633734965416
C         6.43110618834523   -1.35227294036205    2.18951145825622
C         6.87770509218741   -1.23163521690829    3.62185623296626
H         0.50015048566841    2.82820347618402    0.65850457058786
H         1.12512356674817    1.48682340967373    1.67114190543888
H         0.30717195366273    1.12362228849828    0.15923627223562
H         1.76992584576381    3.35119803039829   -1.18139230551986
H         4.47706814462230    1.40366137639612   -0.97419048116990
H         4.42894578799479    2.81367191206140    1.36663113824982
H         5.93419946293343    2.70713173274602    0.42406506322015
H         6.82907021696820    1.64038367744259    2.40216406542588
H         6.29884618544942   -3.83767899899768   -1.54314677715588
H         6.99427776268873   -3.33377969045221    1.87489919365622
H         6.29099579275170   -0.43610543530152    4.09722672857597
H         7.87716882687003   -0.81379198102692    3.77467565273480
H         6.80239838622632   -2.16851099814437    4.18261877322145
