30
 energy: -48.308316224069 gnorm: 0.131335675030 xtb: 6.4.1 (79825abcba525fcdf90b791dcacef51065a7a4e7)
C         0.95937935149278    1.84495563851198    0.72133844259678
C         2.36099235155558    2.17667049818240    0.32465936691424
N         2.84169624294295    3.33673433366951    0.04131948278505
O         3.18661307602836    1.11297568618405    0.33839067950409
C         4.59420233072300    1.24485079489471    0.07447748471680
C         5.33402273299188    2.16403422902689    1.04697973771468
C         5.82711367221657    1.17683033508095    2.12502025429571
C         4.79429932128302    1.02479368318203    3.15883784552583
N         3.94457235622499    1.01555600119272    3.95104922914279
C         5.84568866296817   -0.17087539218815    1.44415144729524
C         5.18620965797661   -0.11368389247670    0.27991657467627
S         5.11324601319810   -1.41056397316835   -0.83754972792660
C         6.04410377204813   -2.66448388021189   -0.07517919383020
N         6.28993677684768   -3.79649348209394   -0.63427368621609
C         6.35514200824572   -2.46384932312086    1.35460743533144
C         6.24865367591160   -1.38119988830148    2.14730394219206
C         6.86053769792404   -1.31688557438602    3.52101332058061
H         0.76344742002462    0.84742092693052    0.32018530562180
H         0.22604784762390    2.48963876963760    0.22914114875447
H         0.94421031428860    1.88222773425083    1.81428021820072
H         2.16624512582882    4.10882435957235    0.03207305869598
H         4.65370221599313    1.50763874908446   -0.98851860816806
H         4.61599804213466    2.91119361831357    1.40712234673305
H         6.16145538313841    2.67889106138175    0.54179210417861
H         6.75913358858897    1.37066483888199    2.67147065844893
H         6.16007656133004   -3.78178001671389   -1.65377280228221
H         6.74856000193823   -3.37556571585406    1.79349832538176
H         7.94633006924456   -1.33694201215133    3.36698328252997
H         6.58530410995609   -2.10006700437801    4.23357761921091
H         6.44568912179123   -0.51394568101727    4.13830595476422
