30
 energy: -48.303952103564 gnorm: 0.135979414580 xtb: 6.4.1 (79825abcba525fcdf90b791dcacef51065a7a4e7)
C         1.01363716039204    1.32077459057906   -0.55699197754897
C         2.46121712690384    1.68894220165270   -0.52744766381590
N         3.05904487298408    1.87301059918009   -1.65253726637074
O         3.04383660696037    1.77676610927180    0.68338933926259
C         4.47427477683078    1.62976788576701    0.70761314333967
C         5.00333844989382    2.26506942910406    1.99387769873114
C         5.98823799801933    1.24226620933045    2.59697628150310
C         5.47682770000271    0.76996077598126    3.89080255105097
N         5.07491780438870    0.36948457275303    4.90461087594639
C         5.75696853894026    0.00070584799558    1.76915979085614
C         5.00227834469547    0.23009855541717    0.68682544785825
S         4.47444606768674   -1.01742623697603   -0.36247302579382
C         5.57646466383190   -2.31163891921258   -0.00110269148165
N         5.68024439514237   -3.29654585789815   -0.82186710494303
C         6.45781039696651   -2.22125797854413    1.18056966656062
C         6.60571640291479   -1.16101795456025    1.99656718551727
C         7.42820600397165   -1.29815421860967    3.24969132321846
H         0.34622952939814    2.13279594199045   -0.85628620752905
H         0.63511580753629    1.06382924327703    0.43615971235071
H         0.91377766368303    0.49412896192772   -1.26609430833121
H         2.32426833018768    1.76715128541435   -2.36059090189615
H         4.74007453297685    2.15411007653935   -0.21811582389600
H         4.21925881421409    2.42519643169211    2.74426942156651
H         5.53959738702153    3.22176240492327    1.94803282210896
H         7.00946754698965    1.61693152883075    2.74379931330154
H         4.99138396047981   -3.21876571690070   -1.58073477388720
H         7.06298671431251   -3.12247849961311    1.19445499702278
H         6.86420613522908   -1.14508935495191    4.17788733390631
H         8.19160816199936   -0.51456124566321    3.25827663051046
H         7.93967616663970   -2.26095987548988    3.15343382541353
