30
 energy: -48.308748140641 gnorm: 0.137535433427 xtb: 6.4.1 (79825abcba525fcdf90b791dcacef51065a7a4e7)
C         0.86826396490352    1.67344611838089    0.77577339155257
C         2.22406592750322    1.99069672965401    0.23442218864836
N         2.56809764973141    3.08346935656412   -0.35260079345247
O         3.16983245333400    1.17251957384436    0.73381842461170
C         4.54039192575204    1.35101249164517    0.33625617933372
C         5.28256769513267    2.17690358952331    1.38748025687503
C         5.70738436524140    1.06686523383184    2.37095735824580
C         4.63632620705051    0.88913504245601    3.36082899540267
N         3.75305194967282    0.81055050409602    4.11140956502363
C         5.80089940280202   -0.19088753557014    1.54056527669849
C         5.25576292191874    0.03703653772301    0.33869045014720
S         5.20531550566786   -1.13314450502157   -0.91194297236309
C         6.19426565746937   -2.42051073458455   -0.29171243528130
N         6.59861588771366   -3.38452396593585   -1.04114264034305
C         6.52511626998320   -2.48139797148075    1.14638332756913
C         6.39730285596458   -1.44113356785890    1.99098442692894
C         6.96070354065475   -1.55822876205768    3.38184179793530
H         0.24148802655253    2.46603534143025    0.35942869308460
H         0.96869697855787    1.81115658415424    1.85586535365055
H         0.53419583301722    0.67234577418847    0.48882806950806
H         1.68251606716791    3.40895395563786   -0.75540068342645
H         4.54866624107595    1.92247212427839   -0.59965186516888
H         4.74580104599094    3.04219461741047    1.79572321696166
H         6.21393244521810    2.57395820347808    0.96339980852030
H         6.60939550359658    1.23553968312296    2.97325779753884
H         6.11605588461094   -3.43568261723699   -1.94722058592897
H         7.09052478031719   -3.37805283351868    1.38080386646573
H         6.53393113850844   -0.88327279311930    4.13375425989815
H         8.00139214425156   -1.23002546831307    3.30358338838981
H         6.81840822598521   -2.53149825731589    3.86180069717119
