30
 energy: -48.308867793313 gnorm: 0.138580512524 xtb: 6.4.1 (79825abcba525fcdf90b791dcacef51065a7a4e7)
C         0.93647186316497    1.56067396358278   -0.35457290504505
C         2.32436843255869    2.09896330187888   -0.22849458241800
N         2.92338549426919    2.86707414570911   -1.07009431972151
O         2.98425244415397    1.55708061748626    0.81275516404991
C         4.41937351724251    1.58210509489357    0.90303262103034
C         5.03936963330223    2.09252938412998    2.20421090154100
C         5.79533330733365    0.88908726299991    2.80431719614436
C         5.34458784867895    0.37672858347497    4.10543848107751
N         4.97043235344704   -0.13422678364708    5.07942637951116
C         5.74978118164032   -0.17753361943272    1.73638321051223
C         5.01401807586020    0.22551374008600    0.69243314572644
S         4.87951687549108   -0.67805558393802   -0.75719593451368
C         5.75725452344768   -2.13644857324827   -0.40692943691883
N         5.85662960450726   -3.12315071799063   -1.22608125581530
C         6.47453622085463   -2.35870316905141    0.86484044601057
C         6.39390844056107   -1.47626873041908    1.87807581291662
C         7.23258383208368   -1.80669033054759    3.08350559897955
H         0.56649266808620    1.51633253679536    0.67282083428569
H         0.94214803610452    0.53467085100721   -0.73264036568570
H         0.30217109366982    2.14210699336446   -1.02965749292829
H         2.34806112043861    3.26890518250703   -1.81841002810833
H         4.64867429799942    2.13336596937775   -0.01679944984388
H         4.23853525157237    2.44021671964145    2.86850535706526
H         5.72037595377949    2.93894541144077    2.04689847989311
H         6.87213511237564    1.07968614719374    2.89924306225912
H         5.50240852523582   -2.83841934910148   -2.14798910255829
H         6.87446705592039   -3.35945970488832    0.99588007674017
H         8.30790015274053   -1.72123064185577    2.88485002515414
H         6.97935925089368   -2.80018351151260    3.46524262951827
H         6.98160918515795   -1.02673710347338    3.80914096773231
