30
 energy: -48.310815989812 gnorm: 0.127999230147 xtb: 6.4.1 (79825abcba525fcdf90b791dcacef51065a7a4e7)
C         0.72947790185025    1.86941160725663   -0.45563862497066
C         2.15748185244149    2.20045153599502   -0.16732399668416
N         2.76764521976830    3.30654510439163   -0.41504058806993
O         2.85005606017504    1.10383488871839    0.19469490459341
C         4.27674928338427    1.15386002637735    0.36902987289410
C         4.81920205164237    1.96685497237963    1.54494537380763
C         5.79965659960918    1.11059090586198    2.37283564167912
C         5.26572976514922    0.96126978829897    3.73343286200089
N         4.60277432612871    1.02990010168200    4.68501055133487
C         5.79417415566303   -0.21086109970775    1.64210132618819
C         4.95639081885147   -0.15904351225210    0.59852081028081
S         4.93297144895126   -1.42217187810774   -0.55902436799292
C         5.96828237461474   -2.66088601494579    0.08420087230695
N         6.10940752973053   -3.80980101907664   -0.47664158289936
C         6.68531659996230   -2.42620224118139    1.35387573559125
C         6.70586281088448   -1.27235990566181    2.04674154885149
C         7.56743328054925   -1.08613754143302    3.26683719994142
H         0.26660550074571    2.82231714783054   -0.72416950464048
H         0.33109490958856    1.37869573062204    0.43662732759422
H         0.68772764702387    1.18208568182286   -1.30533328951756
H         2.15370621345851    4.05728381374921   -0.74957459716970
H         4.69156529375120    1.57795018667946   -0.55326815576340
H         3.98371621342231    2.46415786532624    2.05304237209582
H         5.42517562706891    2.77833066158168    1.12157777425956
H         6.81272274516775    1.52386948285196    2.46080602014358
H         5.46615306492688   -4.06078983251351   -1.23801331830657
H         7.35016620320951   -3.23252368978911    1.64790029354472
H         7.14650898072752   -0.59207557470698    4.15103067468307
H         8.52734934593189   -0.68026508007720    2.93411622652774
H         7.76456676987859   -2.07631520417055    3.68938730220376
