30
 energy: -48.312532658749 gnorm: 0.132112086393 xtb: 6.4.1 (79825abcba525fcdf90b791dcacef51065a7a4e7)
C         1.20985513494758    2.25311197709405    0.76447073496045
C         2.64838296441869    2.37031706572909    0.37871346191862
N         3.18437598854625    3.39566024708393   -0.18563452218275
O         3.34440801877023    1.24056285584904    0.60781890670562
C         4.69331925791772    1.27729058353419    0.11038730784660
C         5.55559377658999    2.06538225964611    1.09699113587449
C         5.89709677916093    1.06213306260873    2.21803894953451
C         4.83602984678934    1.16212898414805    3.22934359367714
N         3.93678921633662    1.25268233300717    3.95933430531421
C         5.83495144865971   -0.24673748069958    1.46754998932522
C         5.20753973769779   -0.11591965403913    0.29159625871984
S         5.03307287163886   -1.34464807930738   -0.88981818356064
C         5.52417655728517   -2.80934651762806   -0.09389380000254
N         5.35767926315734   -4.03635266426819   -0.44203270592647
C         6.14639734635721   -2.60512169462663    1.22989700379899
C         6.25053926859553   -1.52568003812296    2.02726594062817
C         6.95377107098393   -1.65719126510930    3.35157158092946
H         0.66564665975266    3.19828055439138    0.69459831690773
H         1.13891336087826    1.95033088675567    1.81277435645298
H         0.79618513287736    1.50406352998110    0.08333595803323
H         2.52696279215232    4.08289499181986   -0.57028892282086
H         4.78245931234673    1.80027462295332   -0.84935229625163
H         5.05864100945465    2.94281498276375    1.52903168529536
H         6.51492312825633    2.39141815980803    0.67470610760238
H         6.85462132434886    1.25426634948284    2.71911024063401
H         4.86889790828795   -4.20503010280253   -1.33034531588741
H         6.64693472890878   -3.42842871215933    1.73015443500586
H         7.94704906265994   -2.06336067248685    3.12464033907575
H         6.39474696939822   -2.37674666391592    3.95705204491539
H         7.04065401052510   -0.72492235631124    3.91830608162759
