30
 energy: -48.303661394958 gnorm: 0.135806692322 xtb: 6.4.1 (79825abcba525fcdf90b791dcacef51065a7a4e7)
C         0.83897689687626    1.52645711890010   -0.46631341561845
C         2.21934698975600    2.08908847992497   -0.36665209049520
N         2.72730483239984    3.14274777385407   -0.90413393091100
O         2.95483949283878    1.28621215512568    0.42563897647911
C         4.39236644219205    1.26690402248882    0.46426675476033
C         4.89018450868607    2.01900249443686    1.69898048954213
C         5.87218849458874    1.12805675875573    2.48750145892805
C         5.40922854419506    1.08907253908385    3.88132627661902
N         4.81926284843729    1.18481865631809    4.87756581747220
C         5.78923749555637   -0.16935853066568    1.71934097414574
C         5.06667897809971   -0.06201340981303    0.59683834026865
S         4.92571810210471   -1.20784683908039   -0.66931651488653
C         5.76443391327400   -2.55353849978940    0.04180212615077
N         5.86719648913320   -3.71731245130106   -0.49628354181168
C         6.59543796432269   -2.40700819897529    1.25392824693728
C         6.60884167027100   -1.32565228561812    2.05538117178995
C         7.47940890974313   -1.33242476437921    3.28325837492726
H         0.17610202104710    2.10178669487824   -1.11745198521420
H         0.29533363933263    1.36874851203617    0.46922365488740
H         0.99552267400504    0.48487963910073   -0.76084831067330
H         2.00850200560266    3.77688772821166   -1.26969066723629
H         4.63806441302773    1.64373779362888   -0.53582683695825
H         4.01973453371515    2.28411195228708    2.31179619629693
H         5.30518140050228    3.00176584035967    1.44034823485461
H         6.87560975584122    1.56462541154478    2.57349264236009
H         5.17745869895649   -3.81442201868002   -1.25212089358809
H         7.07369325493351   -3.34724521322361    1.51055218358983
H         6.90794758661069   -1.25926054073070    4.21661334141381
H         8.31423069168463   -0.62591527977026    3.31139099815457
H         8.08777655932776   -2.24174024091823    3.31319381817466
