30
 energy: -48.314351650810 gnorm: 0.124000319943 xtb: 6.4.1 (79825abcba525fcdf90b791dcacef51065a7a4e7)
C         0.91535617455754    1.58579019836812    0.39183603343185
C         2.30628905294649    1.94006189893106   -0.02253737855205
N         2.66523117100644    2.94582141303474   -0.74136571353051
O         3.20651900305416    1.06877741403056    0.47115701989570
C         4.58832607031936    1.28804676752194    0.13817219179107
C         5.19345370332512    2.15865718192353    1.23992129648982
C         5.66899383128400    1.17247428741365    2.32674531966069
C         4.64890911257468    1.15677800755388    3.38399660109860
N         3.81913617655614    1.23488213363873    4.19337708332877
C         5.90139511753328   -0.13958249226384    1.61629844268939
C         5.24959586659855   -0.01656226761935    0.45283377633520
S         5.11465230940146   -1.28060888564982   -0.69604783072587
C         5.89398197032573   -2.61786812865937    0.09414400039176
N         5.99767049481133   -3.76934179707001   -0.46961422201894
C         6.59229596225898   -2.44259799077329    1.38368917631899
C         6.62255423285793   -1.30679737054206    2.10540845301362
C         7.35651674196427   -1.16817142467897    3.41219754519547
H         0.90550498114276    0.64212869703406    0.94301167349945
H         0.30584285148597    1.45765477526667   -0.50689887260882
H         0.57343779522247    2.43426836009026    0.99126715032976
H         1.81091207334056    3.32069273915630   -1.16804250341402
H         4.47125947517805    1.81623535280846   -0.81569922464746
H         4.48577018508304    2.93587731967892    1.55396302419497
H         6.12190715456528    2.60429633005972    0.86003074707405
H         6.60062522086489    1.52554096333458    2.78744897909784
H         5.44138157103082   -3.94778781069649   -1.31528452607495
H         7.05429365402009   -3.34353620057868    1.77547763018950
H         6.86348810697162   -0.62250782194368    4.22598289402159
H         8.28220269428228   -0.60816489715098    3.24980062320349
H         7.66587909567582   -2.15314570609194    3.77549165345513
