30
 energy: -48.307348547341 gnorm: 0.135663285870 xtb: 6.4.1 (79825abcba525fcdf90b791dcacef51065a7a4e7)
C         0.91179383665727    1.56158149680476    0.13543164499757
C         2.32742864937529    2.03223501568473    0.05561081466182
N         2.79987354342557    3.20615027617557   -0.18066146853969
O         3.19660104688292    1.01450540356790    0.20410504248484
C         4.61080060074911    1.25176841241299    0.09412985027085
C         5.05860553445614    2.13801278145080    1.25690008152049
C         5.69921651659964    1.21740615816248    2.31613681824519
C         4.70096413234988    1.11491920462292    3.38925745951871
N         3.93860711362618    1.10156122554254    4.26581516041095
C         5.86970754381560   -0.10853135050120    1.61395424872878
C         5.23398331944830   -0.06468785688182    0.43600755379135
S         5.10604695175350   -1.31752403963529   -0.72588147993183
C         5.77931274239190   -2.64785418252872    0.16684181382918
N         5.70613406464905   -3.83654042857980   -0.31909649553903
C         6.59698884430352   -2.45751554142981    1.38194082210369
C         6.66654654697471   -1.26459718824795    2.00157345024024
C         7.45718495208883   -1.20684882229072    3.28109353812986
H         0.50424980539183    1.38132021263203   -0.86246734338739
H         0.29035577528400    2.30474006398456    0.64256051089624
H         0.89484843947366    0.68353590160057    0.78726737368212
H         2.04695875936965    3.88983931171552   -0.31531414714885
H         4.87655770140177    1.67068998127651   -0.88384573936731
H         4.31252042552791    2.69505732418878    1.83704459938636
H         5.78383040607828    2.81480157350185    0.78685468405502
H         6.60756335845119    1.60090890076177    2.79849825860219
H         5.25445332339353   -3.73404385723025   -1.23666804761881
H         7.36248900401437   -3.20596917913435    1.56209706685954
H         7.23015783441093   -0.35346105398912    3.93167831065345
H         8.54688742911588   -1.14742569790581    3.20433476730692
H         7.18680013583914   -2.10173450377768    3.85024521845572
