30
 energy: -48.315069160786 gnorm: 0.126458359409 xtb: 6.4.1 (79825abcba525fcdf90b791dcacef51065a7a4e7)
C         0.86256549564978    1.44540373163695   -0.07376446203970
C         2.31534121525155    1.78692032279013   -0.14244608579198
N         2.99616045249441    2.29655790966628   -1.10881067474631
O         2.99994712205089    1.43782907012917    0.96332732311615
C         4.41759367790101    1.67766996624881    0.99654359489379
C         4.97204866404905    2.15616722256112    2.33878541235123
C         5.68206074029219    0.89679569601711    2.87706766703083
C         5.01875769551937    0.20501830210734    3.99065312527993
N         4.50651916815294   -0.51868344750451    4.74137784617125
C         5.74922760860037   -0.09277798120242    1.73844101272470
C         5.13519087648246    0.40899611377906    0.65917833827345
S         4.95030568864361   -0.50439329977927   -0.77869850756963
C         5.95228525675693   -1.90691552247012   -0.55736505331629
N         6.16161671588574   -2.77477545442591   -1.48335951109098
C         6.63153908055376   -2.11799540082966    0.73698742585501
C         6.51266090756134   -1.33046068568315    1.82211155469973
C         7.18441492165298   -1.79146685760796    3.08774803456116
H         0.51537481899824    1.49852124898283    0.96113931389529
H         0.67181464627825    0.43675302605095   -0.45044400417914
H         0.31093457053138    2.13715395497896   -0.71666879787016
H         2.46277764608806    2.37298140857662   -1.98179689818319
H         4.78993820616621    2.35011343319632    0.21440692408178
H         4.20757558765450    2.55629275209955    3.01627326570910
H         5.60988661269873    3.04534570379132    2.25240671924240
H         6.68071556057832    1.18656865918654    3.22858035185964
H         5.63510741915464   -2.72234832548311   -2.36455073192183
H         7.17199973368366   -3.05870133456284    0.69693313623110
H         6.46761458554912   -1.77825350250717    3.91786566091297
H         7.99967221065732   -1.09963726221684    3.31926891480538
H         7.57619671898396   -2.81105308542789    3.01837255246988
