30
 energy: -48.305872936659 gnorm: 0.131558480839 xtb: 6.4.1 (79825abcba525fcdf90b791dcacef51065a7a4e7)
C         0.97195733110769    1.71282296426428   -0.87392894132348
C         2.40123194269957    1.98556003800466   -0.53526006229566
N         3.18542776161266    2.84169867876158   -1.09129006691536
O         2.86197633998286    1.25062913647624    0.49472826226028
C         4.27484552961421    1.38145482829741    0.72932156973625
C         4.62477865074028    1.94708450736870    2.10613053402558
C         5.78323824038337    1.08080820696775    2.64224463260480
C         5.60572888927712    0.96821598036187    4.09634673162134
N         5.69099353794265    0.73383104816979    5.23103338186406
C         5.81815294858888   -0.12342132784026    1.73183246328894
C         4.92661466382488    0.03488743006717    0.74505787010989
S         4.52530773542635   -1.13854867469168   -0.43729276585903
C         5.66878721424814   -2.40161046591505   -0.09502135169146
N         5.57958751534122   -3.49675344077752   -0.76373020282692
C         6.56112917119469   -2.35882419453864    1.08106706890074
C         6.58156844892860   -1.34220106931199    1.96305174967671
C         7.60084190408387   -1.35177747776825    3.07057410268122
H         0.89394920552545    0.86246081852873   -1.55597557830022
H         0.47169565127891    2.56003148499680   -1.35103017135126
H         0.42817951776594    1.40864247325404    0.02491528994494
H         2.66655783293369    3.41934994198041   -1.76176432473200
H         4.55829446223001    1.93729592270952   -0.17248540447966
H         3.76760111159125    1.78976588127192    2.77246890601941
H         4.81718214149198    3.02755387059283    2.12857493950148
H         6.73623893420484    1.59280384300166    2.45652675430308
H         5.11269171665733   -3.65531851898958   -1.66557500178272
H         7.12173338362090   -3.28648130269813    1.14275112686680
H         7.09901389095861   -1.41608017713008    4.04376801699241
H         8.16196303927553   -0.45397503166125    3.34619776522966
H         8.29431663836191   -2.19415806389302    2.98484340795018
