30
 energy: -48.316545134540 gnorm: 0.123897251820 xtb: 6.4.1 (79825abcba525fcdf90b791dcacef51065a7a4e7)
C         0.90733548663280    1.61190550857180    0.63935932860330
C         2.26551421455534    2.06705759838475    0.21498315025717
N         2.74127176706002    3.23512702259544   -0.04264910580023
O         3.12930030278435    1.05403091257018    0.41730784494335
C         4.52358774353541    1.34986122224643    0.22548603156225
C         5.10232071257890    2.13749151507669    1.40136851666028
C         5.59123213252573    1.14051973047398    2.47230004698000
C         4.46846108842812    0.61646754136584    3.26182763476078
N         3.65454920520608    0.07148778776875    3.88653923669573
C         5.88119315460857   -0.01353369273415    1.54261131757537
C         5.28777562171893    0.06921156471581    0.34484890768433
S         5.43101688519357   -1.06136611501389   -0.93469334069550
C         6.13160739569255   -2.45885750707850   -0.17560789078816
N         6.07966192401925   -3.59648702590044   -0.77357685191408
C         6.60494454277210   -2.30733732513574    1.21517683593513
C         6.57764768427115   -1.21031054492834    1.99467935066404
C         7.18932982426994   -1.26797360628976    3.36877379296249
H         0.26705038446304    2.49588579123301    0.69415446413131
H         0.98327842846448    1.10385604689992    1.60464064555694
H         0.49978232448149    0.87141790405493   -0.05470086931482
H         1.98188246209074    3.92444972911240   -0.01805636540370
H         4.58995205588523    1.86729625134169   -0.73909425798872
H         4.32434937625362    2.84142758547612    1.72190538167550
H         5.91502829561768    2.72663302499710    0.95712137152773
H         6.47568265191918    1.49356274500680    3.01814691717461
H         5.51715671643407   -3.67424514197498   -1.63031493928584
H         6.99167613602308   -3.24091406750271    1.61204299134627
H         8.21033862363913   -0.87774659175521    3.27746960561964
H         7.25483865757986   -2.32253074274580    3.65248552699061
H         6.58851096510713   -0.76370938046813    4.13205372156024
