30
 energy: -48.309727469427 gnorm: 0.132807052973 xtb: 6.4.1 (79825abcba525fcdf90b791dcacef51065a7a4e7)
C         0.77059405131887    1.63609181340844    0.18040136773034
C         2.16947155190338    1.85978235417426   -0.29395324645099
N         2.66911718912297    2.60374181479629   -1.21806599120150
O         3.08994748251988    1.30812565063836    0.51948617615900
C         4.50796695591440    1.27779407930654    0.28147479117983
C         5.16592109770925    2.17257695001048    1.33240433632425
C         5.84376460326940    1.21393951595115    2.33311603421530
C         5.05045096884413    1.38188692709451    3.55828804395154
N         4.36193685908758    1.44618483444985    4.49184798443428
C         5.78446846725452   -0.15502463389299    1.69856189055467
C         5.02973987553921   -0.08904982768481    0.59418060014753
S         4.95485975840599   -1.30266602529084   -0.61308119217629
C         5.88094221814640   -2.57399441499745    0.12591501338989
N         6.14839731969226   -3.69042337792177   -0.45418867433978
C         6.49938927807253   -2.42473978022593    1.45878218400106
C         6.58279035183676   -1.28108205045400    2.16371361658400
C         7.37435416650877   -1.29446735470448    3.44389453199902
H         0.03773048937390    2.36520679939847   -0.17412789032872
H         0.76412849973805    1.50363882197984    1.26578793848633
H         0.57804769003233    0.61449381945698   -0.15931096386325
H         2.01602624176652    3.02694974960721   -1.88650444841171
H         4.59507966310814    1.55807335514274   -0.77512980557847
H         4.38563188507785    2.75697599023091    1.83553034379666
H         5.87480313458591    2.93245247032453    0.97883354100078
H         6.91297022660847    1.42866097647937    2.45775523952615
H         5.89789807699233   -3.82621936900932   -1.44174533865732
H         7.00439607966049   -3.36964569175518    1.63414056659622
H         6.82829876979046   -0.67342333867230    4.16445013681644
H         8.37266753598453   -0.87912161074264    3.27736273380825
H         7.45409618078534   -2.31620058125248    3.82803563910628
