30
 energy: -48.308182222711 gnorm: 0.132971206320 xtb: 6.4.1 (79825abcba525fcdf90b791dcacef51065a7a4e7)
C         0.83506339248781    1.45942550795418   -0.01972521449115
C         2.20131193365403    2.05574948548635    0.07861428987564
N         2.63721401289551    3.25040314329034   -0.12113010138560
O         3.06192691728420    1.11022054091544    0.50122713561511
C         4.45989999170639    1.44353339045883    0.44716725719014
C         5.11115134830897    2.22039624996567    1.59187189277086
C         5.61925226060396    1.07995658689478    2.49802434377395
C         4.87802932563258    0.69346722757071    3.70625189723444
N         4.52562050685050    0.34339629696511    4.75647969167664
C         5.77706948724684   -0.08572629283956    1.55117960487338
C         5.19013039159725    0.14011121528299    0.36875588444857
S         5.13120335218210   -1.09245158907073   -0.82005396154251
C         6.05076823742469   -2.45139426523660   -0.24760728592636
N         6.28382111617291   -3.44990730049372   -1.02421800377307
C         6.61606314726826   -2.37530269398672    1.11472171865018
C         6.42818551888525   -1.32914219442340    1.94060745251919
C         7.08561918905546   -1.39613723689614    3.29297879289825
H         0.87996493877202    0.36894916843156   -0.07659227435545
H         0.22298633463497    1.82956226732142   -0.84677422188352
H         0.29502890602849    1.75800857298601    0.88324318887733
H         1.97655350100764    3.92176209720116   -0.52763662735701
H         4.64093957012065    1.99504732634512   -0.48321729690389
H         4.33276242715463    2.78716634990186    2.11760148889241
H         6.02678372234825    2.68509588865570    1.20378883954548
H         6.63932845617530    1.28266580375172    2.84901498214154
H         5.80112203556287   -3.36929428129915   -1.92807735405687
H         7.22041695236601   -3.20709155160990    1.46330940479084
H         8.12088398761375   -1.04000353753757    3.35982281950350
H         7.07842031027009   -2.43125570163734    3.64703027210254
H         6.47241503823707   -0.79024885167663    3.96732432722396
