30
 energy: -48.315105234613 gnorm: 0.122938508708 xtb: 6.4.1 (79825abcba525fcdf90b791dcacef51065a7a4e7)
C         1.02838388824059    1.99578100693550   -0.63566400772207
C         2.51676041310607    1.87868096484191   -0.68980200405420
N         3.28749964321304    1.80496864663363   -1.71821502467737
O         3.01032030905972    1.56388391501815    0.52287528214577
C         4.44090383896415    1.46776121282989    0.63485670081594
C         4.89980366631806    2.15249394849431    1.92270179007773
C         5.90553938268814    1.17935476927046    2.57183756264118
C         5.73508751761097    1.00344133365809    4.02049208647161
N         5.52341520257747    0.82919645511853    5.14945338516153
C         5.66898216688283   -0.10230220122634    1.80918827924998
C         4.86601499303495    0.03768888770803    0.74651609512931
S         4.38026804767800   -1.19213955723600   -0.34321975939278
C         5.47329895946432   -2.46023909933587    0.12285638420765
N         5.56032654143196   -3.51416100184469   -0.60936009623741
C         6.17183452871738   -2.42121067229146    1.42355367783133
C         6.42987785682201   -1.30301143274448    2.12703159300762
C         7.58514776190887   -1.25616521579981    3.09076003140787
H         0.81307713104466    2.91998654608646   -1.17776711680037
H         0.70256516227143    1.94347804499411    0.40681197029054
H         0.49425944585615    1.20781770334849   -1.17414886622085
H         2.80665146029145    1.97247561774989   -2.60881546956751
H         4.81611268210527    1.93718930259596   -0.28242949551626
H         4.00897470077969    2.35465156045365    2.53020925864220
H         5.38885710787346    3.09455279689748    1.64290058713335
H         6.92499894712944    1.53025219805825    2.36589073971684
H         5.02910637690569   -3.56297929743208   -1.48792739537367
H         6.70582426619973   -3.33223835647365    1.67557180782795
H         8.27908790158567   -0.42817543423914    2.90114845789198
H         8.04912748746532   -2.24692023148558    3.08940811334694
H         7.26889666037870   -1.18380543398367    4.13604050402314
