30
 energy: -48.310563648323 gnorm: 0.130207298564 xtb: 6.4.1 (79825abcba525fcdf90b791dcacef51065a7a4e7)
C         0.98632484758370    1.68033361373179    0.73177836959714
C         2.37469489112933    2.05328185543452    0.32527344467068
N         2.78401779584556    3.16201746545534   -0.18488919169295
O         3.22348049315813    1.01000795573202    0.39181161514313
C         4.60365618435213    1.25420908712271    0.06958572238763
C         5.29376181297918    2.11123048141529    1.13131144030408
C         5.78952591498198    1.17059397000478    2.24903339055692
C         4.87047852199738    1.19800868773904    3.39498261629745
N         4.03850892070211    1.52998514006556    4.13480575751553
C         5.80499026941961   -0.14978140502271    1.51649838078887
C         5.22305681034605   -0.08589869408168    0.31196594183277
S         5.23230900108170   -1.27799925583245   -0.91879113197351
C         5.97263232174704   -2.64984270092521   -0.15068507088296
N         6.14152035023647   -3.82714921397857   -0.64047313378182
C         6.40700000520647   -2.51356605826018    1.25432097241511
C         6.36489120638616   -1.40057482618595    2.01017440934329
C         6.70242689412304   -1.44320013215822    3.47641734825291
H         0.72235737623979    0.67687709701966    0.38858039165616
H         0.27852455792972    2.42461111569825    0.35665258155107
H         0.88988369253685    1.67433505822847    1.82118378160497
H         2.12174768721538    3.94398783476246   -0.23350356985063
H         4.68181606959077    1.66336736947259   -0.94482982524164
H         4.65336629357409    2.90907728442570    1.52734594582668
H         6.20202414993509    2.65233118633235    0.83600412027273
H         6.71854637239771    1.61666666635123    2.62689716230508
H         5.91406354044698   -3.81180387334533   -1.64271387819491
H         6.85156253997402   -3.43604077579712    1.61492346795770
H         7.63261969421625   -1.95878986435261    3.74471033046508
H         5.93174147529218   -2.06080264402123    3.94703995225737
H         6.91955389688494   -0.44875641686744    3.87866046299060
