30
 energy: -48.308124035556 gnorm: 0.136494504336 xtb: 6.4.1 (79825abcba525fcdf90b791dcacef51065a7a4e7)
C         0.83564867295914    1.93563304140407   -0.11567258990275
C         2.31279590667148    2.15861444613198   -0.13061858843805
N         2.90040683788590    3.22290035862244   -0.55383805040064
O         3.11412833222887    1.13058380490656    0.20747034536291
C         4.54181607694509    1.28802438335232    0.28005751249442
C         5.05608358060866    2.13449315298534    1.44496635150782
C         5.91202400816599    1.18384244428990    2.30723706417607
C         5.21902794820187    1.00823086428415    3.59079325174725
N         4.96443948726395    0.77463750094173    4.69999971938544
C         5.92778070085789   -0.13824597604042    1.57780437958108
C         5.16517607567854   -0.05726345816270    0.47985070224435
S         4.87334256791405   -1.28531212745450   -0.67889095787654
C         5.65404345185358   -2.67375622209792    0.01591063806125
N         5.90208093940453   -3.83247953219549   -0.48439321563480
C         6.34009281968586   -2.51719927159970    1.31441554415074
C         6.46989694731730   -1.40229486966222    2.05736667144014
C         7.14669658939311   -1.41141235713333    3.40179032219724
H         0.45248977709800    1.41051836565666   -0.99421257218982
H         0.35837443900273    2.91101412366349    0.01274337424675
H         0.53655452002843    1.40367668208169    0.79190999784684
H         2.38541693729831    4.02503368290048   -0.93306126786231
H         4.81614870805392    1.68135197392717   -0.70614401397922
H         4.25976730478859    2.53130505750187    2.08678409040010
H         5.57902002551445    3.04873962176100    1.13572895746756
H         6.83532584887984    1.61591739759501    2.71425786755280
H         5.45363101021676   -4.00941168135320   -1.39216316674653
H         6.75049533816568   -3.43848049148905    1.71621200765026
H         7.45287263086320   -2.38568400465079    3.80194477030339
H         6.48362200375857   -0.90921240373860    4.11242514515715
H         8.09416768519046   -0.86529568613791    3.44557517498913
