30
 energy: -48.306224410586 gnorm: 0.142628134731 xtb: 6.4.1 (79825abcba525fcdf90b791dcacef51065a7a4e7)
C         0.95023081057782    1.98660379473912    0.41987320422257
C         2.34928008326757    2.08165715859863   -0.09542672058989
N         2.79857455891700    2.72028782493629   -1.11884801869534
O         3.13358894005299    1.26500685823317    0.63342625367685
C         4.55536105684315    1.35617177378705    0.43695321161954
C         5.27316215527291    2.11794657761009    1.55160727205126
C         5.74484242114375    1.02092575321365    2.52830809042918
C         4.66142656861498    0.88815571381651    3.51176196758667
N         3.89380607541273    0.88344739703513    4.38380364023368
C         5.73203058872577   -0.24774184914720    1.70943312513911
C         5.11162239887042   -0.02861484762998    0.54294138232772
S         5.07595630438692   -1.13426394058279   -0.76557699323994
C         5.81296451811284   -2.56716820068013   -0.11471276330781
N         5.84840307765603   -3.74601148278863   -0.62807302749047
C         6.55417129419100   -2.45615360985156    1.15791320680226
C         6.54082332797144   -1.41959551566403    2.01652033596977
C         7.44558261413579   -1.27151828257445    3.21029560012509
H         0.51421552944654    1.17381693531544   -0.16634932597337
H         0.38571170326627    2.92211586730143    0.46212182418482
H         0.99111738509311    1.65983861527170    1.46279881818786
H         2.05514732510819    3.25465109303295   -1.58168120543167
H         4.53641458780584    1.80876109867001   -0.56172706860761
H         4.61158499644994    2.85651672663753    2.02101015672484
H         6.19617309177588    2.51988615035144    1.11407755795480
H         6.71849068878633    1.24293851018528    2.98389593567580
H         5.38146520882184   -3.76812269728241   -1.54346294895985
H         7.23891090546629   -3.23028357066179    1.49030465782629
H         7.32088329105517   -2.22290796797742    3.74169027184222
H         7.13781911475597   -0.58327584549042    4.00306194675466
H         8.50982958829397   -1.14265844302050    2.98976107058484
