30
 energy: -48.307877161213 gnorm: 0.133652680027 xtb: 6.4.1 (79825abcba525fcdf90b791dcacef51065a7a4e7)
C         0.93126315417454    1.49363814794491   -0.09278266139862
C         2.32688296045630    2.02537492142157   -0.13032440133972
N         2.68297570052282    3.06137815425795   -0.80634294299024
O         3.03099134035197    1.24285248724982    0.70942245508102
C         4.44953153128225    1.38709308994758    0.52157406436417
C         5.12255943106150    2.21657027653344    1.61564626703375
C         5.85755746074227    1.18891393062333    2.50084781094299
C         5.06912819441340    0.79244820145835    3.67549394307123
N         4.41615898403695    0.66582967572665    4.62802689614386
C         5.96094526927910   -0.06347417049777    1.66354689017235
C         5.16668716198589    0.07610357013093    0.59429572003435
S         4.93950632183557   -1.06850210619923   -0.66038314036606
C         5.90592335614815   -2.42150070184134   -0.15495965390466
N         5.93766438173137   -3.50015630847035   -0.85493160735593
C         6.58178646411086   -2.42981386319472    1.15821533426731
C         6.58393716078829   -1.34686410754432    1.95762277703441
C         7.27564978877439   -1.51827186185634    3.28343145218307
H         0.58650755009880    0.86112369121551   -0.91464499415119
H         0.16064131182687    2.26114979356641    0.01998903891508
H         0.86291768976423    0.83167556807548    0.77513177635220
H         1.87234888267750    3.39156178518906   -1.34141830696828
H         4.59472587848520    1.89069538137355   -0.44168171870134
H         4.39043815997089    2.70650088421339    2.26946253800169
H         5.73714084759994    3.02633065943045    1.20150298635124
H         6.82839855859535    1.55587843084646    2.85812293518767
H         5.41399231296363   -3.51525449031061   -1.73923822616984
H         7.28959207927972   -3.23348429314719    1.33641370670052
H         6.57837041196349   -2.13214580643792    3.86655476880496
H         7.36388224801172   -0.57524503166031    3.83096221805100
H         8.18370235270933   -2.12780653203718    3.24136020864439
