30
 energy: -48.307197840269 gnorm: 0.122351622937 xtb: 6.4.1 (79825abcba525fcdf90b791dcacef51065a7a4e7)
C         0.92530218129065    1.58770689171169   -0.22613905408812
C         2.39140217464699    1.86109503694441   -0.31398978255803
N         3.00420294382737    2.62599288288720   -1.14856291151817
O         3.04526679520531    1.28749482239580    0.71398327240343
C         4.44533160610434    1.52286101253993    0.94370032724889
C         4.71977522489408    1.96597295114840    2.38117222220800
C         5.75355940056048    0.95187027808119    2.91293108231841
C         5.17083595196948    0.29618015399132    4.09153327978486
N         4.52140429950009   -0.15421747861233    4.94306164591709
C         5.93141189904382   -0.06843774662036    1.81403262200652
C         5.21737364635310    0.25939525116457    0.72945858924261
S         4.80503058286199   -0.62364811345656   -0.67985327610982
C         5.84666565937878   -2.00290313393301   -0.49909948868952
N         5.95375134497067   -2.88729848018756   -1.42691609850614
C         6.53017921633126   -2.20005741436322    0.79520649675412
C         6.63412068494207   -1.34423841222109    1.82894101293621
C         7.46080075619777   -1.82188062361014    2.99258768515215
H         0.64811850345723    1.35535581798895    0.80515665784008
H         0.58621472970622    0.74877618155498   -0.84003201661073
H         0.30981791804873    2.44775794350366   -0.50476486057186
H         2.42163927212826    3.05138976461273   -1.87801460546724
H         4.78644639015834    2.27430534001025    0.22152964174919
H         3.83127830485592    1.94038725436828    3.02415578611887
H         5.18175564241004    2.96038353657295    2.32961120604457
H         6.74886268188247    1.40285551339489    3.01697236863532
H         5.69739974815060   -2.56228276609562   -2.36771747530396
H         7.00101356124180   -3.16106508845174    0.97798745149357
H         8.47199718247482   -1.98104262169249    2.59860571498466
H         6.94537170016473   -2.69975601270130    3.39326486242167
H         7.31975804016063   -1.15158334300922    3.84620965593970
