30
 energy: -48.308602776772 gnorm: 0.132018838064 xtb: 6.4.1 (79825abcba525fcdf90b791dcacef51065a7a4e7)
C         1.10443279703047    1.50455268608590   -0.05253080923698
C         2.54250427127088    1.53982254969595   -0.45578568402709
N         3.09901167638972    1.44180543826745   -1.61241784772073
O         3.29419236014961    1.72985263736450    0.64518585851752
C         4.72353990823320    1.62890633633145    0.52220584770486
C         5.48702679989629    2.31811061423917    1.65361124381536
C         5.98640564824213    1.20769351351277    2.60096338276344
C         5.11303404781884    1.10646983496491    3.77806793573515
N         4.53724805209663    1.02381897143166    4.78373159089125
C         5.79166511255293   -0.02938589541029    1.75719298446053
C         5.06064560578699    0.17727848886771    0.65423049542988
S         4.59337157851914   -0.92812442543551   -0.56875425641801
C         5.41508247276375   -2.34420368329531    0.01393839247090
N         5.38462756274791   -3.41594013371765   -0.69663856973723
C         6.05393491881641   -2.35933704170410    1.34545148565331
C         6.37554774260878   -1.31160560560740    2.12689955226597
C         7.38059714142464   -1.41317516645788    3.24277361818291
H         0.78493714753502    2.09753728046518    0.80809713553980
H         1.03093212485094    0.42689137377849    0.11744964384363
H         0.45030638311620    1.80525311096614   -0.87584054427065
H         2.25526942519924    1.40757197321900   -2.19497239207935
H         4.96805662881860    1.92541163843488   -0.50485527632955
H         4.95734707953955    3.08523609978240    2.23194259610630
H         6.35051421461926    2.86616632990551    1.25491176677768
H         6.98931615187498    1.34454205580839    3.02556189207728
H         4.93482209985638   -3.28169330055742   -1.61102985410214
H         6.43259682704246   -3.34584511624088    1.59454301165481
H         8.35766513865020   -1.02690709717491    2.92780116278754
H         7.60191574956136   -2.43313371427455    3.57076315816328
H         7.11945282028316   -0.75692030655870    4.07883292467853
