30
 energy: -48.316506616334 gnorm: 0.120906313564 xtb: 6.4.1 (79825abcba525fcdf90b791dcacef51065a7a4e7)
C         1.02732371087257    1.48553929725921    0.16505071471955
C         2.43927504271959    1.79701856846898   -0.21082442743213
N         2.83561711575576    2.21352151222045   -1.36258137527977
O         3.27242038289133    1.51956185219525    0.81004352081423
C         4.67169001114690    1.56355958092806    0.48071487204819
C         5.44084020847395    2.25213734073239    1.60866061317208
C         5.99663263846280    1.16763878747093    2.55461997529409
C         5.04512252159440    1.09328062333054    3.67162430537453
N         4.37078253832750    1.11037796458982    4.61750660908218
C         5.91118248237654   -0.06574494953218    1.68761325039177
C         5.28282410036838    0.19905611464285    0.53493285253777
S         4.97915343801772   -0.91642140075483   -0.72975935512609
C         5.52988900355766   -2.43018378913953   -0.07765985599367
N         5.24315587551671   -3.58484021991382   -0.56655533298435
C         6.30415021398234   -2.43096287248478    1.18003946166227
C         6.43985871603524   -1.38317870648138    2.01404701905219
C         7.18446405893031   -1.55407660749915    3.31095581186871
H         0.23724932846276    1.99520108273720   -0.39209916935264
H         0.93895422650551    1.65232420963194    1.24209446221789
H         1.00245627232712    0.40268487147026    0.01356165819634
H         2.08564290023351    2.06075692325747   -2.04569510644477
H         4.76801279309168    2.05427077663093   -0.49523738947688
H         4.73543706848180    2.94252790064660    2.08748893217026
H         6.27810648104197    2.83268649437778    1.20014534003190
H         7.02901784680047    1.36431706137177    2.87138382218870
H         4.66842622061193   -3.54152027146329   -1.41759457650543
H         6.70858563305589   -3.42713516291746    1.33071251730989
H         7.17034101833255   -2.62556266075618    3.54503000563106
H         6.64010478600146   -0.91652482742635    4.01386066075089
H         8.24884740633797   -1.35254741104909    3.15495568770040
