30
 energy: -48.298916370570 gnorm: 0.152586075816 xtb: 6.4.1 (79825abcba525fcdf90b791dcacef51065a7a4e7)
C         1.08229214593424    1.37305346025000    0.48678647937184
C         2.47897233756596    1.40475751292983   -0.04254074825053
N         2.74339992157282    1.26521826919100   -1.29462407495150
O         3.41985206049644    1.74573182921464    0.85844016830210
C         4.82248360830217    1.77530815810656    0.54205649500363
C         5.48358216675516    2.45213451506207    1.74324245867925
C         5.88834520403565    1.22319121746858    2.58332977145101
C         4.84512828926669    0.85734770226392    3.55103650351167
N         4.03968263925215    0.71581567031658    4.37623106274430
C         5.82802239598692   -0.01865785496197    1.72635260692033
C         5.35266160219250    0.37631182638431    0.53822087912172
S         5.15073042650349   -0.62014240642269   -0.84100175698880
C         5.50642733023663   -2.20905109567598   -0.23365600949518
N         5.55135004258468   -3.30741314764407   -0.90152492365404
C         6.16258497427855   -2.32014020625365    1.08482983840404
C         6.41251759368599   -1.33159121974763    1.96354573011485
C         7.02854075554339   -1.61104222928558    3.30817883703297
H         0.65895175456239    0.36799225207830    0.41590955129099
H         0.52908037881155    2.15641424287649   -0.03852507681548
H         1.18795710001607    1.59634276941230    1.55220556705760
H         1.98534856419774    1.06377114998701   -1.95585014050280
H         4.78862660986323    2.11598624096790   -0.49974507732978
H         4.76098016061117    3.05895800019178    2.30281449866317
H         6.40878553845998    2.88258535327069    1.33870858729502
H         6.86266455818185    1.33381682417419    3.07658900022066
H         5.06515487127654   -3.10126626870945   -1.78332779846457
H         6.47529779972589   -3.34041384760290    1.28453458344172
H         6.19862401677917   -1.95974247982778    3.93485171017643
H         7.44383666625926   -0.66408606931964    3.66549920410702
H         7.73000480760485   -2.45109619418336    3.29724827961556
