30
 energy: -48.310227048339 gnorm: 0.123088607088 xtb: 6.4.1 (79825abcba525fcdf90b791dcacef51065a7a4e7)
C         1.09226063216420    1.14227583952260    0.61821964615456
C         2.41134506296332    1.56702653413162    0.06008780840044
N         2.83580671995405    1.57036503260892   -1.15520103713556
O         3.26183314886241    1.71753782436408    1.09319048810398
C         4.66906879275900    1.83013006821417    0.81867353813696
C         5.33980657430119    2.26900064039696    2.12078585732988
C         5.73450303096338    0.95532180590299    2.82672084063237
C         4.77969223230123    0.37367262232593    3.77993646414348
N         4.03043514189508    0.04938306639080    4.60647758955480
C         5.82322061302168   -0.07192400949889    1.72348317830932
C         5.25353639469794    0.46498364816815    0.63682944277383
S         5.13989725184512   -0.28759462922299   -0.89831376181534
C         6.05293019245300   -1.75377967294566   -0.70676113913143
N         6.27374241165753   -2.50126885607252   -1.72997575513660
C         6.33677029659543   -2.18897579253498    0.67574671385624
C         6.28601062582805   -1.45091655191645    1.80025965528490
C         6.56494861180735   -2.03617745291032    3.15867017497003
H         0.76192213372455    1.94490322851485    1.28233892183877
H         1.28029364936801    0.30106958960268    1.29102365835633
H         0.32410789661908    0.88531673430417   -0.11666430858299
H         2.21276941344946    1.43607872606510   -1.95908810546740
H         4.66406134656169    2.38012119747985   -0.13003248929559
H         4.74004791364298    2.95572634855090    2.73087328043355
H         6.28220280663618    2.73340511653264    1.80273756742884
H         6.63210144854778    0.93107522780216    3.45804498220816
H         6.13848843079335   -2.15779486233373   -2.68924140706908
H         6.74510581653158   -3.19453738492738    0.70290754286041
H         7.62165310180983   -2.28999272648393    3.30708184624565
H         6.01738699326715   -2.97480260588370    3.28529423895603
H         6.21714949830372   -1.38676328682560    3.96808912157144
