30
 energy: -48.306436833392 gnorm: 0.132574871002 xtb: 6.4.1 (79825abcba525fcdf90b791dcacef51065a7a4e7)
C         0.84712334628841    2.01114814322929    0.04724573853953
C         2.31438018440726    1.88034772251408   -0.20166517256094
N         2.93066733276738    2.28259895653656   -1.25783272669893
O         2.98789543992849    1.39482177263602    0.85848882836167
C         4.42154580935550    1.50094831964757    0.81686643484438
C         4.95174419930041    2.02211255781258    2.15300656530147
C         5.65861342104692    0.85123276572339    2.86662961769978
C         4.82661867194131    0.30736800659086    3.94857008975334
N         4.39324770085805   -0.24523420590682    4.87406480417319
C         5.70640932521813   -0.24329098153428    1.82741300977242
C         5.01072827377442    0.12764428928934    0.74479541237831
S         5.02451099032763   -0.72151654660286   -0.74338745624563
C         6.02875512465783   -2.11142644034661   -0.46113898871907
N         6.04881040272981   -3.03010087872584   -1.36119521361131
C         6.87920926907663   -2.14955114410386    0.74574247143653
C         6.54432630235822   -1.43472301383808    1.83602280749839
C         7.33042067580350   -1.61106906121064    3.10746818166674
H         0.66900883119092    2.81800704352788    0.76253770209287
H         0.42110154056659    1.11553920564140    0.50772337986455
H         0.26633596829430    2.20538993617901   -0.85889838778353
H         2.34190167591364    2.74199016788419   -1.96122268186340
H         4.52920565696028    2.08956103077462   -0.10210190260452
H         4.08807617571380    2.46221792701639    2.66671278478739
H         5.62498900103977    2.85133793121009    1.89989873744977
H         6.54879512394180    1.14427784811212    3.43806816381015
H         5.54531560144538   -2.75055667327615   -2.21255096246371
H         7.59012807936660   -2.97005034763370    0.74348095233191
H         8.28851950890681   -1.07910197953757    3.06131411283337
H         7.73471092878204   -2.62763316940005    3.10285087866474
H         6.66707090397542   -1.42895867099921    3.95874067223163
