30
 energy: -48.313630200460 gnorm: 0.115077553527 xtb: 6.4.1 (79825abcba525fcdf90b791dcacef51065a7a4e7)
C         0.78016987568598    1.76339123532183   -0.07355930349716
C         2.23222705854983    2.11290764037896   -0.10928406892742
N         2.74913500150756    3.28233333017791   -0.25880181951844
O         3.03007320723578    1.03567463240065    0.01836917988246
C         4.44042971902575    1.22579036624590    0.22597276858369
C         4.86017990918930    2.01729015761171    1.46505747250503
C         5.76194309595073    1.13997953958444    2.35782328652103
C         5.08962934560328    0.97704912432630    3.65398969838884
N         4.55162824036134    0.71484684128515    4.64974313798445
C         5.85657566962493   -0.15652174039624    1.58946971382029
C         5.12096038323681   -0.08352108494820    0.47270325266009
S         4.94857547867876   -1.34023035552324   -0.67921593929060
C         6.00395349693281   -2.56103983201584   -0.03437363980892
N         6.18639051000522   -3.61808238438239   -0.74419335680821
C         6.68107474459210   -2.37276694029412    1.26460632477730
C         6.59613567952592   -1.30927803788601    2.08534625126844
C         7.26547979453132   -1.26195955005072    3.43269745338902
H         0.42783169483778    2.16389676428296    0.88029696928142
H         0.74848548727226    0.67080986863578   -0.04336549216461
H         0.24206919866210    2.27754786085856   -0.87495287704217
H         2.12792019933366    4.09387668597721   -0.16973854310115
H         4.82966094255037    1.71889862568232   -0.67286077478458
H         3.97388374268308    2.29280567967003    2.04993319429695
H         5.37776257649943    2.93704403349583    1.16323321290093
H         6.79193217066533    1.49906944097923    2.48037096203627
H         5.59951159409009   -3.66419035613955   -1.58675243516297
H         7.27423677003648   -3.20771013266786    1.62468741434746
H         6.47016094844367   -1.16353357698368    4.18159854775648
H         7.97780111818781   -0.44484145348079    3.58031488289081
H         8.00611511573870   -2.03175724809847    3.67088401691329
