30
 energy: -48.307897926253 gnorm: 0.131344422919 xtb: 6.4.1 (79825abcba525fcdf90b791dcacef51065a7a4e7)
C         0.93604740466481    1.80664756345066   -0.54698709615192
C         2.41933675754824    1.82464776532352   -0.72429108332885
N         3.04036699521109    2.06894377522832   -1.82508475394279
O         3.07663037548592    1.64600121742633    0.43731782447623
C         4.49053689989656    1.39081020552303    0.50130625278695
C         5.10161325094836    2.21917623758466    1.63196462337438
C         5.99107526117560    1.28705378040312    2.48042588262925
C         5.37826352933344    1.02557206603819    3.78988700399448
N         4.82231894079681    0.91025627772927    4.80346875125944
C         5.86975721591569   -0.06022000941172    1.80932744812736
C         4.97246796157819    0.01023117625227    0.81759433286528
S         4.38708115902387   -1.29140188581689   -0.13057547703083
C         5.44109760663499   -2.59998189188520    0.31291936389899
N         5.47747372841927   -3.76414362368345   -0.23285565974828
C         6.44834729064270   -2.34555614477812    1.36268324095295
C         6.63505116589248   -1.25686110013577    2.13191780729850
C         7.78297937990199   -1.06435391436392    3.08628535099157
H         0.73389098189133    2.30811397222300    0.40277754811656
H         0.54793019906271    0.78556766030885   -0.59608364811268
H         0.43263153936302    2.42859150912919   -1.29257359305900
H         2.44686383821837    2.00477389801982   -2.65939820910547
H         4.86780941441882    1.50670964181412   -0.52182186553934
H         4.30101963859458    2.63955871995112    2.25312298375782
H         5.81348049514344    2.97147067690556    1.26832337036299
H         7.02077753995052    1.62757490373631    2.64953969704542
H         4.78383820518451   -3.94173066855406   -0.97027764710497
H         7.13864065202065   -3.15505515689951    1.57909959455277
H         7.93248851872444   -1.97898182049446    3.67294995197114
H         7.58637150829284   -0.36725895737844    3.90621124464183
H         8.73564942754512   -0.68349329511387    2.70519884250096
