30
 energy: -48.310803561797 gnorm: 0.129449665887 xtb: 6.4.1 (79825abcba525fcdf90b791dcacef51065a7a4e7)
C         1.08686729767883    1.41749555944234    0.34247097215466
C         2.43387667340198    1.73134952983916   -0.22230283292605
N         2.79978042584018    1.81839544234359   -1.45341747543340
O         3.38624668796430    1.53820996513871    0.70988449904382
C         4.71562192681950    1.46536369939903    0.16600624518996
C         5.66613056711621    2.30535862583284    1.01978303235616
C         6.06131452326831    1.38091275318721    2.18987316800702
C         5.14863353568567    1.46921241889975    3.33783480108349
N         4.60021910118931    1.42526358542702    4.36107972769124
C         5.81912351848963   -0.00261221297802    1.63540041160252
C         5.15270263302098    0.06850172611262    0.47589535587800
S         4.69130025202486   -1.23933676780355   -0.53039419306726
C         5.57447030594857   -2.54096095615701    0.20839205434572
N         5.78934380052752   -3.67305733282475   -0.36314388087753
C         6.21542109166282   -2.33999493653119    1.52371838494932
C         6.38830840227212   -1.20563148035064    2.22739913906790
C         6.77715367172547   -1.28110075819977    3.67954216506936
H         0.36140681797164    1.52775944539025   -0.46742879146509
H         0.87051971140805    2.12271782129957    1.14962950075109
H         0.91632810155629    0.42330380967076    0.76512943724843
H         2.00883244592737    1.96170111608642   -2.09084001218756
H         4.68891066484063    1.74363122579009   -0.89437673544671
H         5.11317117584147    3.19783212510465    1.33795946107297
H         6.58480030882686    2.60686369530709    0.50009326193950
H         7.05878120639156    1.54668354316694    2.61698107754201
H         5.42507688840245   -3.68852548676156   -1.32414801348107
H         6.72722942745604   -3.26490398411795    1.77115544858700
H         7.06678785696119   -2.30036211283939    3.96289861091209
H         5.93261129692442   -0.90928714137218    4.26723028408810
H         7.71994130238227   -0.74559646097102    3.82870180022104
