30
 energy: -48.313343447962 gnorm: 0.126527905932 xtb: 6.4.1 (79825abcba525fcdf90b791dcacef51065a7a4e7)
C         0.81709786582683    1.62217912520561    0.44271861208510
C         2.26008483157984    1.92114062250306    0.19712000427857
N         2.64938132399867    3.00300867946433   -0.38177166870733
O         3.16621551914227    1.00044633583541    0.57729626051364
C         4.54495519306625    1.31274859514291    0.31292354501986
C         5.32688767001664    2.17792886802822    1.30188144664214
C         5.75378045441242    1.17199759410138    2.39080127077582
C         4.65532189125181    1.08123464269313    3.36226940771426
N         3.85128226830327    0.81774071871179    4.15839212270145
C         5.90970659159574   -0.09156405836523    1.57880551955687
C         5.29229201674531    0.01932002474393    0.39553453616861
S         5.01647250324651   -1.21694703727225   -0.75838049802620
C         6.08944173762904   -2.43920062313930   -0.14612784163342
N         6.23961422110843   -3.51089385766927   -0.84138900117989
C         6.63949249638752   -2.39020851884333    1.22366511246879
C         6.58153905823921   -1.30640671105831    2.01981356184776
C         7.11401756171862   -1.43337736745509    3.42194084970695
H         0.25307314195193    1.90126394778164   -0.45080051707017
H         0.42643401897205    2.15464962019383    1.31421533624322
H         0.88825303235153    0.53899472138780    0.57609598122894
H         1.91521630473581    3.70920785548186   -0.50312719469621
H         4.65962034303578    1.70110689753462   -0.70618791306115
H         4.83636011745697    3.07332560260218    1.70332473969540
H         6.18626563441670    2.58973715405925    0.75706924044579
H         6.65222087783205    1.45543301577319    2.95410416898549
H         5.78785077865464   -3.35516117114184   -1.75139764229284
H         7.17178491228143   -3.31238640010137    1.43551990903882
H         6.23481687921107   -1.56087908284089    4.06523087587403
H         7.67444541971615   -0.54379595782304    3.72433146531047
H         7.79915272606825   -2.27830005792598    3.54259515855386
