30
 energy: -48.307186093675 gnorm: 0.134526911424 xtb: 6.4.1 (79825abcba525fcdf90b791dcacef51065a7a4e7)
C         0.92571284883812    2.31109930897157    0.03878967998810
C         2.39465772720296    2.20798891629071   -0.21315716047451
N         3.05723606504644    2.73767549601178   -1.18141739353501
O         3.04464980409144    1.48890296816486    0.72156763818038
C         4.48182222673182    1.45168773484431    0.68284949479766
C         5.27982607717750    2.03684312570943    1.84851495382569
C         5.92188355299024    0.87540754555729    2.63509682095246
C         5.15114639548681    0.64892384663392    3.86524667747545
N         4.59005510528291    0.60071683668373    4.88140252551185
C         5.87401448737111   -0.27999947908717    1.66402473958482
C         4.97676321738343    0.04040045478445    0.72279682054924
S         4.82143381950366   -1.01471764251741   -0.61830381606511
C         5.73176307237216   -2.46027177138922   -0.29940901441211
N         5.56332579769087   -3.49226170917123   -1.04846962298808
C         6.46508609821756   -2.57342363165156    0.97758847626366
C         6.54522614958779   -1.55814233667038    1.85771262679324
C         7.29618566173236   -1.79397219551365    3.14070121117380
H         0.39014216322399    1.93301274977881   -0.83562626961646
H         0.66769517720205    3.34961309478510    0.26365765002556
H         0.62009405311849    1.73346773524129    0.91576171303179
H         2.40605179549267    3.28346533656248   -1.75632191597937
H         4.70668217264833    1.92328304565491   -0.28130518142128
H         4.48351297013884    2.52332490690406    2.42534264481470
H         5.92759580209711    2.89126944176781    1.61338327799615
H         6.96108324359765    1.13374024496673    2.87627956439100
H         5.07427289118173   -3.40360480654362   -1.94815056297382
H         6.93706935201364   -3.53809178137066    1.13657519054219
H         7.74961065448615   -0.82664063582874    3.38919261650688
H         8.17630832776137   -2.43289290549733    3.02221522656181
H         6.60954354841339   -2.22806430440352    3.87415101545444
