30
 energy: -48.315983872826 gnorm: 0.120334281194 xtb: 6.4.1 (79825abcba525fcdf90b791dcacef51065a7a4e7)
C         0.91029481281900    1.60347412057531    0.35136621046264
C         2.32333565120306    1.45378035569650   -0.10995296904090
N         2.66984560420998    1.05501439949612   -1.28384494463922
O         3.24177289171316    1.62764966360675    0.85933916920238
C         4.63467396834696    1.66321053499240    0.50309394991880
C         5.31150975340875    2.35736772193024    1.68547800864175
C         5.82734349920626    1.22879876810573    2.60206357069774
C         4.98692661459188    0.95197780011975    3.77495269392856
N         4.39569176052444    0.68465068372131    4.73864227600916
C         5.93350051794680    0.04326572781326    1.67282737840967
C         5.27145546776629    0.30989176338006    0.53958740228728
S         5.15088382823881   -0.75246522381227   -0.79937205419052
C         5.83835353127688   -2.25732679681711   -0.26758541716630
N         5.95240548705739   -3.22043272946906   -1.11250271746701
C         6.37959371805889   -2.35474414550841    1.10312881086032
C         6.38959411133144   -1.31132898479160    1.95343571126354
C         6.83857005320051   -1.46205078357943    3.38218311694025
H         0.38247167120399    0.64952535720013    0.42734743322722
H         0.53974129920606    2.17508497428609   -0.50397040891185
H         0.92863498569322    2.07430077107745    1.33834490006945
H         1.85089858379815    0.83975124659239   -1.86300836332771
H         4.74074488413556    2.15393179546195   -0.47184193033346
H         4.61679643796774    3.03070972635832    2.20267547703450
H         6.14253096049393    2.93546888701852    1.26104939240076
H         6.85839366324721    1.45948751538233    2.89965247161781
H         5.48118175817239   -3.04362234667787   -2.00868622075674
H         6.72753135074410   -3.35293445205757    1.35048506323349
H         5.99536330995679   -1.31716662632888    4.06853835508873
H         7.62666923778139   -0.76937046514940    3.69197039315352
H         7.26186533353357   -2.46701578354442    3.47560912489730
