30
 energy: -48.311133975158 gnorm: 0.121372996124 xtb: 6.4.1 (79825abcba525fcdf90b791dcacef51065a7a4e7)
C         0.99893724909961    1.55447742414773   -0.97873223464262
C         2.45168166253584    1.80745508844910   -0.73905743600960
N         3.26062552217301    2.15972174865939   -1.67640681320907
O         2.87278028563985    1.44289430909515    0.48693447669510
C         4.29785928073376    1.41336491029673    0.67831527734664
C         4.66350178452923    2.07356902820243    2.00813824574736
C         5.95194969450562    1.35313921352492    2.45620569869040
C         5.98634050313108    1.21501716247785    3.91851177314300
N         6.11397862445902    1.11383337013465    5.06881195037086
C         5.89173312151939    0.03780804592676    1.71693848510937
C         4.97258936590363    0.07966747618163    0.74377415017244
S         4.57673747749385   -1.14511855140418   -0.38722233499171
C         5.28418734742605   -2.55678637912572    0.33853847628065
N         5.06516506659212   -3.71647820636596   -0.17294012701530
C         6.19078730694870   -2.35792454821596    1.48737236395000
C         6.54812384761931   -1.20811663017568    2.08911123597408
C         7.60840552030515   -1.21622315847329    3.15745242773449
H         0.63258745020489    2.32050124068408   -1.66676130324678
H         0.35177105983492    1.39997099169717   -0.11100341980889
H         0.83448470637290    0.67245708787285   -1.60414131805051
H         2.82780934141448    2.23560658072487   -2.60342049258745
H         4.73712934396214    1.99338958069489   -0.14215509575445
H         3.77693942456864    1.75869083175872    2.57237951568123
H         4.72072906523638    3.16976865096127    2.00525292637566
H         6.86100749167411    1.96091248222645    2.36098717048134
H         4.58456007584226   -3.81448910982170   -1.07619608042212
H         6.66409836958019   -3.26561079641264    1.84891354747467
H         8.44444663507519   -1.88257809180110    2.91234235123471
H         7.20074043201688   -1.61970811172560    4.08905514469681
H         8.01275652732708   -0.21568741812148    3.33990928182812
