30
 energy: -48.307386017935 gnorm: 0.128978364312 xtb: 6.4.1 (79825abcba525fcdf90b791dcacef51065a7a4e7)
C         0.95098208856660    1.81764445251632    0.10273872557656
C         2.39241097914145    2.07199842878314   -0.19641816283620
N         2.93322994607481    2.72899944268663   -1.16232205771320
O         3.08926110189081    1.34959638217124    0.70125659359138
C         4.51385323732306    1.38520703203370    0.50730334800118
C         5.19302779923233    2.23252063261005    1.58376729160262
C         5.90682983077238    1.17899691432484    2.45580857282233
C         5.05594360272124    0.83375119045051    3.60271635528655
N         4.32212670462728    0.46786778774047    4.42573653985101
C         5.92067803007121   -0.09722260322877    1.64877073851132
C         5.17103683345872    0.04178914734290    0.54770758254128
S         4.74744214258617   -1.20451957286143   -0.54921296302244
C         5.68689589508598   -2.55237253484756    0.01712542527812
N         5.81806966472406   -3.56507310213548   -0.76498534416702
C         6.47045642365343   -2.45516956236553    1.26527336898554
C         6.62480521568088   -1.32750664428746    1.98387625732899
C         7.35572659634795   -1.37551534456081    3.29881539533751
H         0.67683470251458    1.17947559525757   -0.74104583306789
H         0.40959708162513    2.76115798375325   -0.00832026702875
H         0.81287521363018    1.32667501748534    1.07021820255323
H         2.18151892325751    3.22664295392136   -1.65193842698049
H         4.79721301379412    1.90689910372396   -0.41470698793927
H         4.52749875271409    2.81727008860319    2.23079779449565
H         5.85691262050250    2.96689396994237    1.10954198730785
H         6.93346548566704    1.41753232648567    2.76233927416309
H         5.15181818764981   -3.67342785614030   -1.54011554364163
H         7.12072817196494   -3.32071074033727    1.34660501489454
H         8.20035016665314   -2.07485977905140    3.27430056234376
H         6.68700774949493   -1.56819408450929    4.14295078730887
H         7.65272258533462   -0.33925393551898    3.48807098348883
