30
 energy: -48.310861293356 gnorm: 0.135764051188 xtb: 6.4.1 (79825abcba525fcdf90b791dcacef51065a7a4e7)
C         0.71143567385251    1.76000837820615    0.00681614526102
C         2.15270757172827    2.06090970662217   -0.24636708506062
N         2.70162893304695    3.03648741389613   -0.88200794375026
O         2.98272653357555    1.13964396383399    0.27863076243358
C         4.42002402533815    1.17908554569164    0.24750175662752
C         5.00929043869167    2.07348713229153    1.33874139142135
C         5.90613106799182    1.19334290290838    2.23367411623032
C         5.24506671742126    1.32969643954060    3.53866495828642
N         4.65483164436239    1.42384382979046    4.53489734269764
C         5.81959436501007   -0.18724378373463    1.62809183650546
C         5.00993963104564   -0.15942436592904    0.56164373446658
S         4.83843006698510   -1.48659554731876   -0.50847480489257
C         6.02804745820691   -2.60701885804780    0.08269538117368
N         6.37854623482911   -3.70082642541054   -0.49627081416679
C         6.63087889986755   -2.43218991419828    1.41960146834448
C         6.55051801304803   -1.32175356169103    2.17611355583569
C         7.25167449151764   -1.30469234515643    3.50791847531595
H         0.05450175384035    2.42298136996771   -0.56177272154347
H         0.41358596628926    1.87372585193506    1.05276236682675
H         0.43978701295633    0.81026991651644   -0.46259294496325
H         2.11697482940418    3.73215879169927   -1.35809998303395
H         4.72008165288175    1.38014565386677   -0.78792022906323
H         4.19797664975308    2.51208876557701    1.93280186785896
H         5.51746973194958    2.98404077005337    0.99583794380649
H         6.95055098541111    1.49176126767204    2.39170734535029
H         5.92586815914104   -3.72504704289028   -1.41874277917735
H         7.25537332006226   -3.28825532795685    1.65579722622991
H         6.54643033876325   -1.20495585938704    4.34203831612115
H         7.95598779411147   -0.47612942734887    3.62750450021134
H         7.81743557207023   -2.22440880280797    3.68651871206846
