30
 energy: -48.311462009363 gnorm: 0.136315898299 xtb: 6.4.1 (79825abcba525fcdf90b791dcacef51065a7a4e7)
C         0.92124879162771    1.72340290697678    0.42625880601814
C         2.30520455579223    1.92198123039044   -0.10018314559619
N         2.69122692185011    2.60553263252685   -1.12040372673149
O         3.20045467509856    1.13991889332380    0.53242297421724
C         4.60464050994401    1.34898358624397    0.30241685260129
C         5.26804413084453    2.24293255950540    1.35062671282255
C         5.71172554887647    1.24265395413812    2.43804157302690
C         4.68746353901707    1.19017008027997    3.49005500078946
N         4.00011758264463    1.19620080108439    4.42666554386526
C         5.78575173015845   -0.06769106809727    1.69121216100297
C         5.20262680774458   -0.00993346874483    0.48694655261323
S         4.92317861706510   -1.26641744461252   -0.64403059244433
C         5.93950154902663   -2.55063111120251   -0.06273627202240
N         6.16174078801592   -3.71586803972893   -0.56002780822731
C         6.52936122033113   -2.35074698009576    1.27644284492329
C         6.49796027068068   -1.27553579432649    2.08562280169582
C         7.35235940583311   -1.40350649500276    3.31819793712207
H         0.51315702136837    2.47357930808777    1.10823031291006
H         0.82143365221886    0.72628795221963    0.86380687696272
H         0.21363057266287    1.68103964890102   -0.40658142111454
H         1.88365147185200    2.97438757341485   -1.63441796813078
H         4.66332516099258    1.77804240303058   -0.70506668727415
H         4.65513504938608    3.00150809827334    1.85303582912113
H         6.14458210901942    2.69338948840033    0.86719458660137
H         6.63241934862060    1.55054962035617    2.95025654385442
H         5.92043921381684   -3.73002278434199   -1.55904322353230
H         7.12827304424075   -3.20905454286034    1.56496054838729
H         6.76433334181645   -1.07938309367731    4.18551676992450
H         8.28606523422656   -0.83372890657907    3.29766788064769
H         7.61161200402893   -2.43020742604811    3.59484808031554
