30
 energy: -48.309010604143 gnorm: 0.123624761340 xtb: 6.4.1 (79825abcba525fcdf90b791dcacef51065a7a4e7)
C         1.05312033448665    1.84008838457175    1.01270456383562
C         2.33854859552003    2.12650327243427    0.30733322908318
N         2.72747605027397    3.16307855333644   -0.34944141230974
O         3.13900908810745    1.05099011977068    0.43310767931534
C         4.51172978049132    1.07204558138892    0.00468823196050
C         5.23013559419244    2.01997113325287    0.96558530909766
C         5.50953101132658    1.17501797107308    2.22569396076974
C         4.33099732782331    1.26373982823427    3.09849754071863
N         3.41778831379540    1.34583803490897    3.81196039155742
C         5.66486243636288   -0.18491781771992    1.58797566047573
C         5.16581937882742   -0.22948908645038    0.34596302505134
S         5.37704742294344   -1.41594437262866   -0.87209235172706
C         6.11899046561208   -2.70911038262706    0.02080304186726
N         6.38006306061420   -3.83082044344078   -0.55197421287821
C         6.64568449095280   -2.35370184650177    1.35405724650528
C         6.41010710952291   -1.29950478655717    2.15718172246968
C         7.09015348133730   -1.21054850139392    3.49704713785451
H         0.52061560160460    2.79395315164157    1.04383934669982
H         1.41524033199831    1.45686524018634    1.97064962284525
H         0.39478473238153    1.14918311535483    0.47849002402131
H         2.09795660795194    3.96515824890691   -0.23623299066189
H         4.58406033974776    1.36871839066077   -1.04855053924629
H         4.51186290696839    2.84639927703345    1.03348336458553
H         6.16769405093921    2.32533208726403    0.48322062455922
H         6.46792748857606    1.46268889570044    2.67687300478313
H         6.14260016520275   -3.90188854877320   -1.54948074654745
H         7.24824698109496   -3.18470361060597    1.70758819400906
H         6.49312752698260   -0.66578510022825    4.23857622828733
H         8.08770780262084   -0.77171589415364    3.40120440399699
H         7.07200612087865   -2.25997458178900    3.80726890822196
