30
 energy: -48.309940698829 gnorm: 0.129630570302 xtb: 6.4.1 (79825abcba525fcdf90b791dcacef51065a7a4e7)
C         0.95983819355618    1.95754941324854   -0.72210545686037
C         2.40368601916889    2.11104834655408   -0.37046704451947
N         3.27867485096229    2.67215266858864   -1.12984989118124
O         2.78297382254998    1.47049811763135    0.75163854313583
C         4.19236328382831    1.42271055195614    1.03392639895044
C         4.48733043533663    1.72947012911966    2.50256045580638
C         5.62000239530644    0.77929286942793    2.94312711965299
C         5.54503688678608    0.15037958392036    4.26881476501164
N         5.40357612309704   -0.35542040460044    5.30509434613389
C         5.61397621602750   -0.25731267016844    1.84510583210175
C         4.82774610856075    0.08578587525848    0.81663518319644
S         4.70154240058064   -0.77587167089572   -0.65902449045360
C         5.79268230772824   -2.11563985903907   -0.47340381441914
N         5.96461138360097   -3.03280976388007   -1.35867552992479
C         6.57135730777324   -2.17972455971878    0.77993061897104
C         6.49601578075121   -1.41578330749286    1.88562258831937
C         7.55884717156327   -1.42268875754588    2.95143569716159
H         0.72444292822147    2.51339506363858   -1.63315613830099
H         0.32015989532301    2.35289102149371    0.07172468710147
H         0.76552291175526    0.88373697171224   -0.79497139919421
H         3.01712725756696    3.01786270448402   -2.05964564504057
H         4.63114185931319    2.10995835293193    0.30063091971823
H         3.56109549116587    1.78733836514020    3.08758132027260
H         4.81809872537690    2.77601407370802    2.51914373996835
H         6.58597539330960    1.29785600732994    2.99631943803465
H         5.25601935327603   -2.83070393633289   -2.07527107331031
H         7.24679504408646   -3.02695406612047    0.71199139369682
H         8.17141658673030   -0.51448625871283    2.89666783827119
H         8.35158529761212   -2.13940248741747    2.71742235342024
H         7.16698754497826   -1.57344612038667    3.96216823415589
