30
 energy: -48.315207754300 gnorm: 0.125950992886 xtb: 6.4.1 (79825abcba525fcdf90b791dcacef51065a7a4e7)
C         0.93261949652382    1.71827204093206   -0.40618298187922
C         2.34334475652789    2.15904313541674   -0.18827676348558
N         2.90222361073630    3.24213728454178   -0.60260430521886
O         3.11598326360351    1.20422432633294    0.36366123908382
C         4.54753104891380    1.34212886738924    0.36507526003444
C         5.01946593668245    2.17249651363896    1.55912721807072
C         5.91031866075843    1.20845820305108    2.36961665261959
C         5.49147203683046    0.97332387866002    3.75809741009050
N         5.05148200484798    0.87259487372504    4.82860316658006
C         5.80663989034349   -0.10297249119746    1.62824067385140
C         5.13533271108798   -0.02951755811445    0.47170390382904
S         4.88655979435574   -1.26824369682563   -0.68571657101733
C         5.53269979563953   -2.66116615682832    0.12809559199108
N         5.41141269321357   -3.82339192379901   -0.40947947283621
C         6.22111283061811   -2.44081283735849    1.41604772787080
C         6.50359355101721   -1.30150644867825    2.07485186571896
C         7.38743571478580   -1.40567724809496    3.28876591006818
H         0.48208775965861    2.19252319136807   -1.28168036181408
H         0.32863837143483    1.78184911746426    0.50311035117348
H         0.90729337247874    0.66688866189203   -0.70633729434565
H         2.35077924332341    3.84775220739054   -1.22032786031226
H         4.79131417120386    1.78729625423908   -0.60701229873215
H         4.18791025482817    2.58860590103257    2.14125902049252
H         5.62208502911925    3.03680277333913    1.25129315211744
H         6.96917821039388    1.49141219329193    2.42957058390601
H         4.82932965695868   -3.88969354093437   -1.25401605745159
H         6.55735832826657   -3.38510497644620    1.83303816716860
H         8.24692962370328   -0.72717329915732    3.22571673648939
H         7.87441915504556   -2.37748954898777    3.41246933074612
H         6.85207316547440   -1.23831200094231    4.22857324287696
