30
 energy: -48.305535579830 gnorm: 0.132600382392 xtb: 6.4.1 (79825abcba525fcdf90b791dcacef51065a7a4e7)
C         0.89390366589925    1.27474444704757   -0.60581985564777
C         2.28681223785911    1.78744561005174   -0.43596330403135
N         2.87495922544774    2.64596975805016   -1.19367381300795
O         3.01692401229011    1.23814901806691    0.55322565866412
C         4.44515798789066    1.40020600483745    0.50596159296078
C         5.13298640517368    2.25643190333752    1.56980472891477
C         5.84218347276891    1.30696187950925    2.55744212380523
C         5.30410176050154    1.19138200031871    3.91968609936909
N         4.86990228849506    1.07795871081676    4.99128585099543
C         5.80421659128927   -0.01014725449280    1.81986509939710
C         5.01372207976011    0.03625601238339    0.73977662007764
S         4.62598513015705   -1.19698436806274   -0.38482578031183
C         5.68895962277912   -2.49206022500901    0.07656748159203
N         5.74233257062238   -3.65324871341311   -0.47412187670990
C         6.53902111511921   -2.31315961325262    1.27100401604575
C         6.66140861349851   -1.17663793772241    1.98176195209823
C         7.54139208209914   -1.24658554218429    3.20092233989796
H         0.26336492892588    1.87681137413382   -1.26485321964629
H         0.36565371594226    1.49759134713043    0.32527673229401
H         0.85417703822782    0.20113431802453   -0.81057364949653
H         2.44867237295301    2.91427846682750   -2.08739226350891
H         4.63669751964216    1.70825899845890   -0.52891730656265
H         4.41808621977122    2.95840624497249    2.01663692806206
H         5.91152780837360    2.83149543574656    1.05200933237390
H         6.90931671801324    1.55351082945637    2.63011366812850
H         5.06337574186776   -3.75516450150420   -1.23903323477255
H         6.93400873058549   -3.30403592534880    1.47294096541160
H         7.04885512897603   -0.66696104326895    3.99118516882112
H         8.53752735804607   -0.86612617973862    2.95630080088236
H         7.69794068395028   -2.25741299442924    3.59025813357428
