30
 energy: -48.313363218319 gnorm: 0.137071016398 xtb: 6.4.1 (79825abcba525fcdf90b791dcacef51065a7a4e7)
C         0.90146677060008    1.49479544484166   -0.46480578184512
C         2.32471826513208    1.93410300267317   -0.34960129548747
N         2.81089326783574    3.03299260067791   -0.81131692757540
O         3.09799683869647    1.04764693926476    0.30577695247732
C         4.49606741977143    1.33505431454069    0.48225443049651
C         4.87131608616469    2.15732624043732    1.71556309222892
C         5.79761396622303    1.21300013022769    2.50935265215877
C         5.24988842111237    1.19191441394725    3.87249292613391
N         4.81260940494148    1.18252006469557    4.94879161141400
C         5.75552515474534   -0.11996394034339    1.80106379143778
C         5.12434587043453   -0.01525049875111    0.62451215636063
S         4.78824508297025   -1.24519098947063   -0.52014280196369
C         5.75074449419727   -2.58621100974671    0.02325407275970
N         5.78998506280912   -3.68750739703489   -0.64012559297343
C         6.63667159777338   -2.41179731596128    1.19201478942040
C         6.51109712505562   -1.34808909918486    2.00724047558307
C         7.44942912107149   -1.34757749065421    3.18416375880117
H         0.33852511244099    2.14537254318567   -1.13877520778887
H         0.40185292145120    1.50009238016169    0.50782341295331
H         0.88318795316554    0.43415410490027   -0.73097652283597
H         2.10558005320620    3.57875013116102   -1.31839157701902
H         4.75855504025733    1.85883579753717   -0.44473617102554
H         3.99564600449607    2.46173823946428    2.30211616608507
H         5.37552178523376    3.08289978539473    1.40892474115815
H         6.81572297714252    1.59584642525430    2.65674207290193
H         5.28217774559304   -3.64699418866741   -1.53284559144988
H         7.36233991590538   -3.19723260782325    1.37943542246130
H         6.95112020218992   -0.96776305561719    4.08444247034385
H         8.35426532747434   -0.75580438765957    3.01697960162569
H         7.95352660785119   -2.29711241387396    3.38942240969952
