30
 energy: -48.305051106776 gnorm: 0.127610358711 xtb: 6.4.1 (79825abcba525fcdf90b791dcacef51065a7a4e7)
C         0.99508360850450    2.14427584454666   -0.47253209552355
C         2.48312970510630    2.02404551195136   -0.41621601638014
N         3.27686033906551    2.56278728419775   -1.27461847943845
O         2.87529639856390    1.36292068501756    0.68940778836893
C         4.27748888294289    1.38359885048670    1.00843331909763
C         4.36939782398658    1.60735587521207    2.51822750471875
C         5.66653909631825    0.87957292495571    2.92766363020066
C         5.47810095332898    0.24211547499655    4.23790725788638
N         4.87144975776626   -0.13640796910023    5.15355696698932
C         5.83745597760643   -0.14176997360560    1.82862591078618
C         5.03471172605156    0.11239817077959    0.78717204454209
S         4.64935700745595   -0.86768321071568   -0.56445458306474
C         5.89830720161122   -2.07375880956960   -0.49012396158042
N         5.86570705647814   -2.98698431067577   -1.39534357563995
C         6.72865065224491   -2.14775333265660    0.72903277303959
C         6.64016783569870   -1.35715164315411    1.81483054495468
C         7.66647902081068   -1.51398360373778    2.90464919816938
H         0.65649730120793    2.19002207369246   -1.51063385028032
H         0.59129204847900    3.03562315939031    0.01542481459331
H         0.45716510702883    1.29301450271862   -0.04575481914363
H         2.79896590063383    2.87956099205519   -2.12533231867108
H         4.78306762055929    2.15916453770176    0.42068645685673
H         3.53463600518696    1.07829356634945    2.99443654637665
H         4.34283683909376    2.63305928452435    2.90830939768457
H         6.50512280789540    1.58777191962637    2.91915276773998
H         5.09751554502439   -2.93075850452607   -2.07591616261125
H         7.47936559727120   -2.89989729180246    0.50691537384062
H         8.11645326595312   -0.55016747079186    3.17233218875494
H         8.37398152179508   -2.30265709336107    2.63205270783456
H         7.12194637803424   -1.83952659793608    3.79648322258890
