30
 energy: -48.314081269088 gnorm: 0.121245842108 xtb: 6.4.1 (79825abcba525fcdf90b791dcacef51065a7a4e7)
C         0.85557007704241    1.65672423520782    0.36712274603784
C         2.27951223774566    2.05912323822029    0.16127866195288
N         2.61468849471562    3.23277108540498   -0.24776096339724
O         3.15439975390981    1.07005835872428    0.42511052543948
C         4.55472926748655    1.39274201009663    0.36765474182826
C         5.11151018168957    2.16852230900067    1.56187117119788
C         5.60343001929775    1.03873882782768    2.49003365597238
C         4.72638995267273    0.62702202318074    3.59451964334372
N         3.97642983544218    0.25411199273591    4.39963950455258
C         5.79389650843540   -0.15842856582078    1.58961676662046
C         5.23370662001768    0.05983259080481    0.39288150172664
S         5.37973886278713   -0.96268908174329   -0.97426016349121
C         5.99737730954231   -2.40273639374586   -0.22272408768703
N         6.07276248763727   -3.51997029133741   -0.85563137834610
C         6.57644931584300   -2.36144444847267    1.13531095706136
C         6.58705016649963   -1.31532552552353    1.98228195938666
C         7.17082201537869   -1.44564719043974    3.36352860642199
H         0.67102519182937    1.70388554580780    1.44327684978740
H         0.67980645104863    0.59327408466907    0.18319196672958
H         0.23388733867537    2.36523538471145   -0.18755153185896
H         1.79171334758809    3.80097562290065   -0.47644901258508
H         4.61368626844823    1.89097490713043   -0.60745880038506
H         4.38263132730464    2.81539288893986    2.06566014962902
H         5.96537938053806    2.69475022377350    1.11585723574990
H         6.55944767943591    1.40429076436332    2.88657232008232
H         5.64720452632868   -3.49282964309646   -1.79084386476278
H         6.94730467834749   -3.37263332155010    1.27166700666938
H         7.54472212833775   -0.46196931958908    3.67280048813528
H         7.93713700141067   -2.21841167680882    3.25185539802815
H         6.39816047375534   -1.78460051087859    4.06064176150185
