30
 energy: -48.316130371929 gnorm: 0.125195766673 xtb: 6.4.1 (79825abcba525fcdf90b791dcacef51065a7a4e7)
C         1.01495558980358    2.10113548419173   -0.70621289022115
C         2.48195938240819    1.81927827949056   -0.72530240323873
N         3.32220340631227    1.82133818879292   -1.70054162722434
O         2.92321317649936    1.52131321561577    0.51154708749327
C         4.35030915246596    1.43509595695112    0.66747112521349
C         4.74842522679552    1.97292927077008    2.04232816012517
C         5.95701762082154    1.15735066213236    2.54632956432946
C         5.76582779787926    1.06607206012284    4.00019131050499
N         5.60704194604318    1.12843198710745    5.14937291298963
C         5.74132915493634   -0.13415703804592    1.79418318106890
C         4.86780136336288    0.03702560324973    0.79354755340052
S         4.47338331000445   -1.14252422566006   -0.38503164927613
C         5.51583479810115   -2.45370639858620    0.07769526535336
N         5.40406777448626   -3.61399079415168   -0.46610102564048
C         6.50178018044617   -2.39727430628288    1.17588274222890
C         6.54977171499637   -1.32926639393292    1.99374152220691
C         7.49098077746897   -1.36911817819959    3.16768912172239
H         0.76431400220432    2.85260167175422   -1.45911794540457
H         0.73697255203780    2.40525338833494    0.30664807632342
H         0.36621005646225    1.24114573265434   -0.89512527836608
H         2.99407641178328    2.13077356401599   -2.62196722739213
H         4.72474112156239    2.00347874462990   -0.19235448446568
H         3.95406409807684    1.89706117490265    2.79515198013986
H         4.92047439188354    3.05578995284209    2.09475606694658
H         6.90970908609922    1.66619403964181    2.35063008514294
H         4.65428593068583   -3.82215944696450   -1.13763031464268
H         7.14875503181810   -3.26859694759911    1.20503768192530
H         8.38730496765844   -0.77667425397239    2.94704078052516
H         7.72265634580489   -2.41757251179923    3.37731845102115
H         6.94499021707766   -0.94259309833928    4.01493916456025
