30
 energy: -48.308875320765 gnorm: 0.126009329924 xtb: 6.4.1 (79825abcba525fcdf90b791dcacef51065a7a4e7)
C         0.87628245108141    2.09967053249394   -0.20744089364523
C         2.36447119790575    2.22118051899813   -0.15806886163597
N         3.10211901136485    3.21445926849485   -0.51356687358842
O         3.00840885428172    1.11108830965120    0.24975994398742
C         4.43485074842631    1.26469958710425    0.34983861246678
C         4.99987147047444    2.11027779795762    1.49165383846651
C         5.81037784615224    1.13050743603777    2.36515878848066
C         5.06551604598832    0.96097038882550    3.62016373222311
N         4.51973177096860    0.96076240944833    4.64575602480606
C         5.86762144880580   -0.17602214535823    1.61021411634049
C         5.08928050390960   -0.06913836720438    0.52560027650655
S         4.77127188256686   -1.39386369750360   -0.51359443481545
C         5.76640544855644   -2.68391516082178    0.09096854628808
N         5.64326025281488   -3.85385432746954   -0.42916965961234
C         6.59003569921093   -2.44937550521877    1.29426109694910
C         6.68722858381160   -1.31245748973634    2.00826952555062
C         7.52559546356364   -1.41783253195982    3.25392304423354
H         0.66823051187511    1.61146256622421   -1.16282355585369
H         0.40818278053776    3.08326178220779   -0.30273285674076
H         0.43660898473927    1.44426762385680    0.54970856348362
H         2.66787682793987    4.03007088385605   -0.95927320260921
H         4.77181879738959    1.69243734346012   -0.60202866755854
H         4.15097369933809    2.47305693236652    2.08433684526510
H         5.55662977816054    2.99862239908147    1.16638332346447
H         6.80642269398073    1.45651548260941    2.69143216409437
H         5.29204962293549   -3.95636458222976   -1.38969104274799
H         7.08057798992839   -3.38791374711699    1.53330888296847
H         8.54713804693817   -1.62194401575369    2.91061297847647
H         7.12840631757782   -2.35779540538106    3.64836581200135
H         7.45055395672952   -0.55555096899871    3.92377469949087
