30
 energy: -48.306039823716 gnorm: 0.138544311196 xtb: 6.4.1 (79825abcba525fcdf90b791dcacef51065a7a4e7)
C         0.83426489708473    1.50077103879303   -0.06798237905421
C         2.30679887437403    1.57762853376047   -0.30807533743331
N         2.87244430172032    1.21227321203589   -1.40519271721556
O         3.17771078541473    1.75153876050664    0.70412643327860
C         4.59255295711853    1.65471449445031    0.46497098224852
C         5.34131983678108    2.37015384359710    1.58990993091990
C         5.97357968920549    1.32757005519166    2.53497499644142
C         5.07376371816059    1.11217361304433    3.67626151513801
N         4.51848900204587    0.69075757175567    4.60566916630036
C         5.88071998499726    0.09078381228337    1.67359545982382
C         5.09987963682885    0.25354316862354    0.59775918333447
S         4.91238285114559   -0.95619893329409   -0.60112418318598
C         5.61072529712383   -2.40821754208121    0.05001310232948
N         5.56705048597455   -3.58478075383967   -0.46792285717613
C         6.26545204743483   -2.32461974727930    1.37123711298817
C         6.47203737180823   -1.18430000518903    2.05594906039344
C         7.40084129222920   -1.22797322468350    3.23960084545971
H         0.39324297679636    1.73280266522373   -1.04063321492822
H         0.42359762851701    2.04146747191319    0.78913451318549
H         0.72413108603200    0.44354361687073    0.18947004871895
H         2.33178730557503    1.22111086367501   -2.27700383239396
H         4.75240711249201    2.14454144350708   -0.50305514028489
H         4.63801919098635    2.96397321737363    2.18678179918046
H         6.07619370247925    3.13484216273698    1.30680388900980
H         7.01675902551749    1.53361209568284    2.80730650618458
H         5.02121757590363   -3.67445653857128   -1.33422723465773
H         6.65783570008169   -3.23693844811575    1.80980212455045
H         6.85670520364061   -1.17143401445347    4.19028048632541
H         8.02597247426664   -0.33040382460859    3.21827738186759
H         7.99211465213883   -2.14222417815095    3.12823219477366
