30
 energy: -48.313647406149 gnorm: 0.129267497071 xtb: 6.4.1 (79825abcba525fcdf90b791dcacef51065a7a4e7)
C         0.92470680372805    1.90346287836394   -0.19078089711948
C         2.40960048719991    2.04739061874861   -0.27005001539458
N         3.05488582767850    2.65347732692725   -1.20459351663239
O         2.97102835047312    1.50381018598907    0.82658294531082
C         4.40738367702371    1.52582747485662    0.89548397916006
C         4.75621904366337    1.92558727123780    2.32953385174466
C         5.79272588436582    0.90858469657212    2.85034177231509
C         5.10807918124217    0.18043286517595    3.92721374690206
N         4.54447977518258   -0.47899412994042    4.70002153511104
C         5.86950962642220   -0.10521066789553    1.73384666609565
C         5.06872561661073    0.19758206884414    0.70394967843989
S         4.81614489963609   -0.79568721449033   -0.66921152739278
C         5.80738874219549   -2.20096256466024   -0.41889778284623
N         5.95567205340065   -3.17233340613468   -1.24890802592367
C         6.60135224562323   -2.23147738971694    0.82608398907423
C         6.69499581982192   -1.30366896290761    1.79677432267039
C         7.53641505734240   -1.54492136483627    3.02128515733994
H         0.57987299873088    1.77520485889319    0.83831005593444
H         0.60320446731061    1.03075956204518   -0.76582418173193
H         0.40215773825952    2.76577491010506   -0.61445703305407
H         2.47461402636348    3.12661660337587   -1.90592551910810
H         4.65229318547771    2.35611858879914    0.22228679675052
H         3.81907608482651    1.74290732591094    2.86981194274682
H         5.00556717951726    2.98990101929304    2.42952708975899
H         6.71221574124967    1.42735327039527    3.15077240046788
H         5.21339334731589   -2.98891650570278   -1.93581352648795
H         7.27607023532959   -3.08147095075269    0.85602216571497
H         7.22430980680180   -0.93180129701670    3.87553727673221
H         8.60092100603431   -1.32884873968120    2.89084642343726
H         7.47792440537694   -2.59110624464211    3.33741495539936
