30
 energy: -48.312544197973 gnorm: 0.119448152955 xtb: 6.4.1 (79825abcba525fcdf90b791dcacef51065a7a4e7)
C         0.95034982927738    1.51781871794155    0.23216192111337
C         2.36551703245724    1.89030325977039   -0.06861220992785
N         2.85025266892110    3.04137569929646   -0.38033229599879
O         3.21287739191256    0.94629449299071    0.38317604631406
C         4.58603194020962    1.30974915470160    0.15801842264380
C         5.19624120450352    2.24992150282264    1.19807301632531
C         5.77595704158942    1.30365824021450    2.26970580278631
C         4.81938525804964    1.05058529141437    3.35576465303163
N         4.01348222844019    0.84953956971788    4.16805831483844
C         5.91635508341710   -0.02863640961554    1.57291516787192
C         5.25780050979882   -0.00365045013151    0.40702171954349
S         4.89238491866804   -1.35312620368171   -0.58360382711624
C         5.88977619935812   -2.61766723611687    0.06921053523648
N         6.01583970214681   -3.72078572409365   -0.58017665957798
C         6.51789124688947   -2.35695843011167    1.38023722711487
C         6.57987051309274   -1.21660518926237    2.09269080734000
C         7.23155229521232   -1.14989745607457    3.44785741774883
H         0.22299572674554    2.08572683907742   -0.35335070447787
H         0.77991545059385    1.75354400253510    1.28621852303621
H         0.83034297432410    0.43079210677536    0.24277005922791
H         2.22305457412286    3.84303618835570   -0.50841712501403
H         4.60819436116239    1.74040614313028   -0.85024828617829
H         4.42984572397484    2.96033121270003    1.53193718280192
H         5.96454559191723    2.89111679637480    0.74694795695934
H         6.62964142613424    1.76700314492540    2.78095463349215
H         5.55398574917127   -3.73682724538358   -1.49826825738843
H         7.02775212609483   -3.25939345579381    1.70316526651303
H         6.70260624158625   -0.51957224142105    4.17310133364888
H         8.22863416518296   -0.83311348460862    3.12793527489952
H         7.29767142721381   -2.16163959452552    3.86000796053160
