30
 energy: -48.309387016889 gnorm: 0.135640591270 xtb: 6.4.1 (79825abcba525fcdf90b791dcacef51065a7a4e7)
C         0.91062634678021    1.48473682254849    0.17307775771166
C         2.29093163308519    2.01998611272846   -0.02735561496773
N         2.76040819349886    3.11431469911555   -0.51637761097669
O         3.10068433445409    1.04399917373015    0.42545208546095
C         4.47558283825126    1.23039835953482    0.04695756978020
C         5.14592713383526    2.23251065671999    0.98738428752401
C         5.74327311583314    1.37356348136780    2.12108131952559
C         5.02073293616049    1.29956180346517    3.39821042330532
N         4.37284469605370    0.98920676467538    4.31124965637615
C         5.80102861466325   -0.03760771768556    1.58676122360550
C         5.17199449214077   -0.04455825456394    0.40443567357944
S         5.05191357304244   -1.43554398550202   -0.58888783588912
C         5.99656999049283   -2.68283693490929    0.16735585946392
N         6.15386611090280   -3.86999174487505   -0.30209863664469
C         6.48733664302689   -2.42692093284512    1.53664168749810
C         6.44429983341425   -1.22296841657732    2.13704423097937
C         7.14680303978297   -1.12177874269050    3.46439704752279
H         0.11226053995763    2.22642288269714    0.08999655897897
H         0.69473239414925    1.23103446125983    1.21455484328052
H         0.66388557130759    0.65026812669356   -0.48943414110191
H         2.10759402185005    3.77860746478436   -0.94648398352473
H         4.50621736368252    1.53386918349564   -1.00638252239561
H         4.33334305517653    2.87035865950731    1.35666238122119
H         5.86362921047597    2.91666802290269    0.51646043188221
H         6.75467612020545    1.68644881787415    2.41092201072381
H         5.58890023011375   -3.95059100374863   -1.15695295303756
H         6.97105960483785   -3.26515317014868    2.02858519707375
H         6.46175391710541   -0.62855024696537    4.16475830973485
H         8.02199686922683   -0.47660764216029    3.34329989298423
H         7.51806746476541   -2.03031201286101    3.94874400836070
