30
 energy: -48.309112767364 gnorm: 0.134308550703 xtb: 6.4.1 (79825abcba525fcdf90b791dcacef51065a7a4e7)
C         0.94063254442655    1.70992163481614   -0.41470997839143
C         2.38408555768329    2.08497923341918   -0.32705592022783
N         2.92809558659568    3.22084805584225   -0.59344084540308
O         3.17242487337395    1.08183638319201    0.10365317567072
C         4.57299910417289    1.33951103517990    0.30451214294441
C         5.00508743550165    2.12632053218090    1.54234231536292
C         5.95000695803130    1.24233986340563    2.38233448438413
C         5.48146752700965    0.95897533010721    3.74570340056348
N         5.13556504830043    0.92599703691945    4.85429892769281
C         5.86159462144989   -0.10630871131922    1.70885962244492
C         5.22698245096426    0.01392484469519    0.53564287025559
S         4.80259692320856   -1.20605099162585   -0.59019390527420
C         5.47645708902694   -2.62132422583989    0.16009555788406
N         5.37355382843198   -3.76372255613539   -0.42197250304590
C         6.21665918648816   -2.53291454308225    1.43507531953899
C         6.46889030877609   -1.37769576604515    2.07825986595837
C         7.37281532187995   -1.43909842167001    3.28024369621743
H         0.38842593487909    2.35763813588211   -1.10021698537335
H         0.61764303078794    1.74868828988279    0.62923663409085
H         0.76290183489935    0.67744462571369   -0.72862725186882
H         2.26446627072427    3.94005509717950   -0.90130457875316
H         4.91504236855663    1.74521169032551   -0.65516062359027
H         4.12001368856567    2.46223359445481    2.09670337737366
H         5.46795910360579    3.07758864715713    1.24946744741250
H         6.96413347335129    1.65713810533268    2.44814343328106
H         4.91468530135754   -3.92184758234668   -1.32800493296216
H         6.66990995418634   -3.50882540755016    1.57926770357137
H         7.76917016871548   -0.42276642849345    3.39445709206319
H         8.19597470712371   -2.15251594780374    3.38182432647029
H         6.76524449888808   -1.51414933191688    4.18748515403625
