30
 energy: -48.313669130429 gnorm: 0.128319231633 xtb: 6.4.1 (79825abcba525fcdf90b791dcacef51065a7a4e7)
C         0.89488925742012    1.80375189920768    0.53891619429454
C         2.34079169978582    2.00523364692335    0.22161624901219
N         2.83994475973532    3.06746677590149   -0.30716802795222
O         3.10856430832336    0.91291101646999    0.39666266952456
C         4.47533762299176    1.15333419679478    0.01920266691710
C         5.15475207222402    2.07064395711036    1.03651862218843
C         5.75945931432281    1.23991699388878    2.18721550104280
C         4.81557165790010    1.14574692771428    3.30918136439205
N         3.97993454459472    1.16873551506089    4.11596646708931
C         5.79165613440858   -0.11096770666631    1.51318901407618
C         5.16391901891519   -0.13789330372054    0.33046036610856
S         5.17729292818860   -1.44156443188859   -0.78139171146905
C         5.99096488860580   -2.68555942796886    0.11884956992831
N         6.24553966201924   -3.81617432729121   -0.43915381008098
C         6.57773862119318   -2.41942156263699    1.44781751724079
C         6.42282191426514   -1.26962162614723    2.13031144479931
C         7.04917919382003   -1.07818294219650    3.48553961500460
H         0.75068233186485    1.75840459602766    1.62129165764565
H         0.44304387680725    0.88560631879014    0.15356693492745
H         0.34278547953367    2.67294161486183    0.17036268713917
H         2.11706882831738    3.76089332617916   -0.52864651560742
H         4.50286576910689    1.40929501981517   -1.04676385473377
H         4.50742587704839    2.93149415565886    1.24488128516920
H         6.03416394112689    2.53069000382181    0.56755246363126
H         6.67534160743256    1.69162162630723    2.58966231758502
H         5.93364817572478   -3.83183861437072   -1.41840705554642
H         7.17146625144549   -3.24960569125609    1.81783294285793
H         6.48303652040413   -0.28192938630109    3.98407275817253
H         8.04351022260833   -0.65645928345395    3.31138603036367
H         6.92742197059766   -1.99675778817810    4.06799767668749
