30
 energy: -48.309497827480 gnorm: 0.133117665440 xtb: 6.4.1 (79825abcba525fcdf90b791dcacef51065a7a4e7)
C         0.82705064222952    1.61975678841105    0.11597554580349
C         2.22522688884971    1.74803452085461   -0.39447133889905
N         2.67658498516601    1.87625366844585   -1.59319629545707
O         3.15600254543068    1.59787945462760    0.56698322467494
C         4.58119884561128    1.49369049336297    0.40478333927532
C         5.31896197290705    2.31118671186775    1.46563132412400
C         5.95965215701380    1.29554326678920    2.43406611122890
C         5.11412787943909    1.18996977810473    3.63095468770429
N         4.40240603438672    0.92186252376257    4.50918619968890
C         5.84245036796143   -0.02712546093653    1.71500489765967
C         5.10126074073342    0.10561638875725    0.60746551016518
S         4.77038077380554   -1.18638623734475   -0.46826679575480
C         5.77653670011117   -2.49531364248071    0.07430051188667
N         5.92768851661311   -3.66689866707810   -0.43462758046224
C         6.63962404163335   -2.25725980049936    1.24890649370423
C         6.59815239854772   -1.21246124297080    2.09655804156751
C         7.27493451916664   -1.26799502330149    3.43987393184348
H         0.08088142920880    2.18734322019252   -0.44568788120499
H         0.74569637935455    1.98480944581360    1.14348109139498
H         0.52977917724134    0.57986924477125   -0.04651938532891
H         1.98824293888145    2.13780917888543   -2.30749081040199
H         4.84741815255542    1.88950370139420   -0.58264643274829
H         4.51685035264458    2.75077981701858    2.07134093108479
H         6.01325427282757    2.96013813438952    0.91630709257414
H         7.03360775298473    1.45846479588905    2.59191686165462
H         5.41083509681250   -3.86936493895503   -1.29968742694387
H         7.18492373976739   -3.14321549108782    1.55932616173190
H         6.53990673236418   -1.32379252023164    4.25208901343381
H         7.96794570359753   -0.44436986696332    3.63545411360527
H         7.88245384575375   -2.17804954374442    3.46401940736047
