30
 energy: -48.317197367353 gnorm: 0.118788281886 xtb: 6.4.1 (79825abcba525fcdf90b791dcacef51065a7a4e7)
C         1.02581583829543    1.30106631584550    0.34198275897299
C         2.46064409831491    1.46977549455388   -0.03842899233589
N         2.99245432670195    1.65898142625892   -1.19535803312741
O         3.21917264877020    1.45285412259807    1.07406049619178
C         4.59938635551856    1.82024704866106    0.90559323361371
C         5.22787232416934    2.17334816179613    2.25404343383573
C         5.64502005316333    0.82830391579357    2.88390468019782
C         4.75219330785028    0.37824311493717    3.96042916775709
N         3.99618875877995    0.00567373858239    4.76003484349426
C         5.74710785926212   -0.11183540967389    1.70663922133967
C         5.26793750008531    0.51206332090851    0.62277017962457
S         5.05406328040927   -0.26766613907848   -0.88793566005373
C         5.95073183952355   -1.74386800034001   -0.69601500957967
N         6.08775199056838   -2.65854550138832   -1.58991471588816
C         6.60059542885767   -2.05265081376020    0.59379857244290
C         6.46094134277682   -1.38073091682658    1.75175256252222
C         6.87003030806872   -1.93546137394533    3.08986165527736
H         0.78121661171135    1.93867767467379    1.19521873599239
H         0.84604318684894    0.28736662943649    0.71041775515038
H         0.33166188352611    1.51492108999732   -0.47567086787843
H         2.28693950507602    1.49349994616977   -1.92151740240785
H         4.80785060169253    2.46171770960857    0.04094508227719
H         4.53209311810668    2.70666546308275    2.91356843285349
H         6.08535603587846    2.85255428729219    2.16273308592502
H         6.60019843104062    0.96540368516842    3.40704789189760
H         5.61681350885051   -2.52091039150924   -2.49309360628301
H         7.06970530135403   -3.03149760840358    0.57319539311030
H         6.64910457101920   -3.00952786263318    3.11526915293143
H         6.37773420236964   -1.41182811214542    3.91468118539183
H         7.94068126205823   -1.86482387896696    3.30568296723875
