30
 energy: -48.308919528949 gnorm: 0.126691443451 xtb: 6.4.1 (79825abcba525fcdf90b791dcacef51065a7a4e7)
C         0.97078005742871    1.52966270284839    0.76705026752829
C         2.25438025953535    2.10700324592446    0.26609474096743
N         2.40108271891868    3.26326221339680   -0.28039349736615
O         3.21741526961441    1.17736420937314    0.41313073202687
C         4.61821760609664    1.39311615784623    0.16909679324243
C         5.22089449616067    2.16820563859146    1.34127843621705
C         5.67081836010066    1.10249500398133    2.36192078236355
C         4.75637456125342    0.94048593475278    3.50040437606620
N         3.98975120092902    0.62646022986469    4.31489595716855
C         5.74114866275736   -0.15544551266094    1.52952837230791
C         5.19337365225485    0.02027811304147    0.32011128921395
S         5.17327444365814   -1.20035652255448   -0.88221954218397
C         6.21294032860544   -2.45664710919095   -0.28151264248470
N         6.72471887916663   -3.42544267000787   -0.95529599671792
C         6.56730643650048   -2.41653095103563    1.15170190459798
C         6.39542972151302   -1.37419790634737    1.98587051130746
C         6.72476734963027   -1.47369468439671    3.45122122767627
H         0.52960106696218    1.24308806136947   -0.19087704312234
H         0.33097428578422    2.28498539888226    1.23157777558529
H         1.17473070190147    0.72383672169057    1.47781721481050
H         1.46914379274939    3.69095061832796   -0.31225537547189
H         4.77360849066932    1.80623520046473   -0.83476808564266
H         4.71534839076689    3.04852248276168    1.75718065332941
H         6.08979412390228    2.62963003222970    0.85441313201789
H         6.65437670286584    1.41295154582658    2.73751446865112
H         6.53263184038958   -3.61763544304438   -1.94656946495873
H         7.05755776070064   -3.34102741140260    1.44082046220772
H         7.01781312369466   -0.47432300157611    3.79539118418638
H         7.50523976101531   -2.23198225534202    3.56408080365773
H         5.83516038715137   -1.69953204696868    4.04742496745901
