30
 energy: -48.311629126802 gnorm: 0.130983607408 xtb: 6.4.1 (79825abcba525fcdf90b791dcacef51065a7a4e7)
C         0.86939933964567    1.66754106428524    0.54564702287484
C         2.27190458613829    2.10689697227299    0.27759210169270
N         2.70796372057686    3.25043979204369   -0.12149192146558
O         3.11084044070872    1.06791744016782    0.45077673522581
C         4.50932498817699    1.39373720258042    0.37058260284456
C         5.11312242727575    2.20746137553287    1.51569157969529
C         5.71703377103938    1.13049032511858    2.44051907942174
C         4.69534210797807    0.62660501744096    3.36833645766875
N         3.64095415126377    0.22802722019372    3.64962253625715
C         5.87051830471637   -0.08185165698761    1.55344114313350
C         5.26607181668916    0.10314674526104    0.37274389469891
S         5.18650759310929   -1.13022271109831   -0.81402552240062
C         6.07512351102547   -2.47723757950676   -0.16909709646614
N         6.29876043317269   -3.55999362773458   -0.82643415511249
C         6.69103910058111   -2.39634791938668    1.17082582910046
C         6.58947906955713   -1.29079185950971    1.93192267939041
C         7.20777982514702   -1.33446802301955    3.30356847490597
H         0.64905490963671    0.80264101926152   -0.08505489009251
H         0.07246479768860    2.35505897583642    0.24922829340640
H         0.68400085697742    1.39388818904400    1.58818361064268
H         2.00811820162607    3.96353812191175   -0.35419287590045
H         4.69767036738064    2.01792498789007   -0.51116225643500
H         4.31022037324599    2.76331577332875    2.01557502095884
H         5.91907744081907    2.83790955599926    1.11831459574653
H         6.68441454283196    1.32458216559463    2.92150110181463
H         5.74478350920776   -3.61112028155031   -1.69069928874089
H         7.14734650884715   -3.33371771315566    1.47373014694284
H         7.87154074534774   -0.50373144491027    3.57258654381230
H         7.76777936214532   -2.25123881435591    3.51046541092110
H         6.43746006735365   -1.30862822754678    4.08061528122306
