30
 energy: -48.306523095787 gnorm: 0.140451615813 xtb: 6.4.1 (79825abcba525fcdf90b791dcacef51065a7a4e7)
C         0.97369246085669    2.04032958955276   -0.38139203213925
C         2.45680250050650    1.97527879290418   -0.54890629030880
N         3.13525407219765    2.38815143497080   -1.56199338141998
O         2.98445792919724    1.37250985703922    0.53346800431226
C         4.42206310183240    1.35273128107266    0.56880674270006
C         4.91198094937719    2.07996171961997    1.82144768755783
C         5.88684094298639    1.14036549256136    2.56083146116132
C         5.54527108734189    1.04679936440997    3.98672581499389
N         5.23402188482295    1.08116600511593    5.10550323872021
C         5.70783031692459   -0.16101140529760    1.81610923797766
C         4.90019508340207   -0.05285105037864    0.75325806158339
S         4.61887675275557   -1.24232332275840   -0.44756167648329
C         5.64627774859752   -2.58763036280015   -0.05434908512004
N         5.76972745315040   -3.67481387262473   -0.73055787262909
C         6.34620075428886   -2.45163523575529    1.23905792880895
C         6.41225920798086   -1.40715551485311    2.08554210017114
C         7.41891880749518   -1.32497211480293    3.20156090247333
H         0.61719797564398    1.19664957822171    0.21484984775147
H         0.45832604975440    2.13870474504671   -1.34075087935753
H         0.67339988943496    2.92152034902787    0.19260121501590
H         2.58349171146035    2.75582890122791   -2.34481794094100
H         4.93035582841148    1.73397384344203   -0.32497789949097
H         4.01265944586530    2.35386141540162    2.38687589700421
H         5.43932257720213    3.03093114924081    1.67143166344315
H         6.94407085924159    1.43207105431024    2.51595754271594
H         5.20031540542052   -3.61652503883515   -1.58427382126331
H         7.06162193336165   -3.24172719713905    1.44535103067319
H         8.32066888014853   -0.95533969269994    2.69828043197565
H         7.37903967351944   -2.36040702191683    3.55250068072664
H         6.95115898313995   -0.80979478645148    4.04634196024737
