30
 energy: -48.302817036594 gnorm: 0.137028297570 xtb: 6.4.1 (79825abcba525fcdf90b791dcacef51065a7a4e7)
C         1.09002821717324    1.68701973490821    0.40709487414187
C         2.50017730487615    1.62013793983943   -0.08169382930051
N         3.04847970106154    1.28134080390436   -1.19600383527664
O         3.28858238191026    1.84408565652927    0.98673941911132
C         4.70650711251100    1.74257122387817    0.76871896784955
C         5.37140172065247    2.21208506872143    2.06311645522129
C         5.96299658826016    0.97243547567848    2.76537413630605
C         5.00371840835749    0.77481691896399    3.86051412183990
N         4.17191168660785    0.56325594007857    4.64349534276121
C         5.78688198966413   -0.12773845973695    1.74613973052694
C         5.24206220993538    0.35342039068992    0.62129151525587
S         4.88967875921701   -0.52905594199511   -0.80454639465379
C         5.72659815825425   -2.03485596949265   -0.57617788637522
N         5.97896910552567   -2.92982617987272   -1.46488670574144
C         6.07816358622124   -2.37222905798971    0.81804940450718
C         6.25463284744620   -1.50452896206369    1.83185027041724
C         6.88633402752224   -1.99378644012729    3.10746633761307
H         0.96165786457400    0.96836131061150    1.22038435545114
H         0.36361240543002    1.79242656521270   -0.40337355503921
H         1.01530340622659    2.58012525080423    1.03392800251683
H         2.30456483942419    0.98966263254888   -1.83939892081505
H         4.98016128664201    2.38338805044665   -0.07805464822598
H         4.65452151965084    2.71199995520346    2.72619801578940
H         6.15619509816087    2.91888791027204    1.76400785277579
H         6.99327336915668    1.19246640809032    3.07352512548941
H         5.76095959204627   -2.57553371304433   -2.40478419385213
H         6.20621598095227   -3.41378540711000    1.09624459856214
H         6.64901329245312   -3.06431047440597    3.13447948160882
H         6.51664854071766   -1.39862855004602    3.94770096947988
H         7.96911503795606   -2.06524837716470    2.96484642330853
