30
 energy: -48.308935831870 gnorm: 0.133267957586 xtb: 6.4.1 (79825abcba525fcdf90b791dcacef51065a7a4e7)
C         0.94054809138287    1.59689928525891    0.23031910816740
C         2.39836008767370    1.56419927064902   -0.09467770613706
N         3.03732094312542    1.77777243968843   -1.19159217315101
O         3.14542286496389    1.52274056041849    1.02490398445242
C         4.57329911061539    1.68365434066809    0.96469676817880
C         5.05836587686542    2.13066047337084    2.34414912166940
C         5.63116330598039    0.82090910421229    2.92409397376856
C         4.69598160619037    0.36361701829288    3.96087679226928
N         3.93170964630807    0.02643786086306    4.76829163663349
C         5.82429035694694   -0.13746031398426    1.77323858303568
C         5.16113347267587    0.33193516203020    0.70857097513697
S         5.09225686614274   -0.36916823897608   -0.85337096197151
C         5.82189117505739   -1.93556278729483   -0.66881194336869
N         5.97691691166419   -2.83345802134317   -1.57667615672829
C         6.41605697979659   -2.15533115689397    0.66533860319986
C         6.51664205379704   -1.41891778023973    1.78757534997682
C         7.38667975590554   -1.86784837356422    2.93086515633077
H         0.68988013036533    0.67540596614567    0.76173636204188
H         0.40509421698206    1.65490275920870   -0.72129759761846
H         0.81518235942836    2.41150976630384    0.94923094607041
H         2.42157395353084    1.89439249956088   -2.00381019920591
H         4.76398086884458    2.43375257730041    0.18781096857614
H         4.23321411942242    2.36663954724225    3.02748488217781
H         5.62214490059938    3.06967889408245    2.27111132991614
H         6.55066004981718    0.93653059045412    3.51231026321808
H         5.70721380059938   -2.42017522263053   -2.47829479390651
H         6.87597232826112   -3.13194574133300    0.54987631290790
H         8.15623751455055   -1.15485998598972    3.25102295100374
H         7.91440345540515   -2.79976509213238    2.70745189422456
H         6.76753313656434   -2.04991632294181    3.81481692855871
