30
 energy: -48.308775917872 gnorm: 0.133474090519 xtb: 6.4.1 (79825abcba525fcdf90b791dcacef51065a7a4e7)
C         0.94096002222885    1.64843171427796    0.10996336151302
C         2.38088846288716    1.67285007697869   -0.28742543092190
N         2.92288560869492    1.95737870873609   -1.41985130506808
O         3.14250790267738    1.53720520538996    0.81476377893056
C         4.56133174984093    1.61476006268522    0.59278902590124
C         5.03580825914079    2.24172843080353    1.90419119855020
C         5.81228513803088    1.16029911746593    2.68359850396523
C         5.07976870895252    0.63563245434895    3.84409145725457
N         4.43403740588288    0.23296391826654    4.72193495282239
C         5.90674994635985    0.02789468323358    1.68912656236118
C         5.12310126578225    0.22844456544607    0.62174638056047
S         4.85749115449544   -0.83645170231514   -0.69408018351869
C         5.70604378094582   -2.27204940572331   -0.20516540320041
N         5.83546192759749   -3.29912885523738   -0.96859509334970
C         6.35108334908910   -2.25446719882324    1.12333127435723
C         6.61058073965072   -1.22122135566177    1.94607133059100
C         7.41596578590447   -1.48639444986162    3.18971668841097
H         0.77071807719388    1.49989691660239    1.17923589594862
H         0.40186692209018    0.83312472070208   -0.38024347481625
H         0.35571431815322    2.55262560224030   -0.07993637377926
H         2.39549302015959    2.00626159178403   -2.29843552647740
H         4.74601094257740    2.18120626754384   -0.32785784667522
H         4.19494048983957    2.72079132481606    2.42086267097227
H         5.81369486426771    2.99127885237658    1.70924644761372
H         6.80614348168024    1.44741093824805    3.05054986048623
H         5.36768094370054   -3.24763250177143   -1.88237168752346
H         6.86012019056770   -3.20946730804007    1.20985238759351
H         6.85635936000378   -2.16884074130633    3.84100790996208
H         7.67238730616228   -0.63162314891246    3.82255832071005
H         8.21079605579212   -2.18258315513576    2.90436060109198
