30
 energy: -48.308610670223 gnorm: 0.135768566658 xtb: 6.4.1 (79825abcba525fcdf90b791dcacef51065a7a4e7)
C         0.99443865058195    1.25730354722673    0.10527683657211
C         2.39446863628442    1.44608440194955   -0.38071274051213
N         2.87178268783996    1.44236852451724   -1.57623075116104
O         3.20852558436289    1.73701101763805    0.65173957059502
C         4.63254556152130    1.65987584271366    0.46582021060525
C         5.35772435830308    2.39127010075587    1.59594020747968
C         6.01402907848953    1.31435867814408    2.48442626114243
C         5.17830060462999    1.10229643238822    3.67404257641276
N         4.65381363881420    0.85895035358390    4.68172121693832
C         5.83642914711413    0.06259389508631    1.65872577112778
C         5.12214883004035    0.24817137503045    0.54114315371527
S         4.72353384236630   -0.98810169958267   -0.57630374190059
C         5.57606109682737   -2.38007257947907    0.02004723326990
N         5.83927930074854   -3.45560269992165   -0.63448877742609
C         6.25073745507156   -2.33471736699839    1.33307561193849
C         6.48838797614069   -1.19300883776190    2.00528181634497
C         7.16526528292051   -1.30115980408465    3.34534014208631
H         0.28560475891692    0.72088348681695   -0.53048781789819
H         0.50962103852157    2.23222120133350    0.20595980855784
H         0.99426867100129    0.82201767853917    1.10860490768336
H         2.20196753629536    1.57500457986271   -2.34186647127740
H         4.77410971855584    2.16952976018144   -0.49478945067384
H         4.70567068970767    2.99072062587985    2.24323796865095
H         6.00653819939746    3.20083406269698    1.23735452736542
H         7.04789740522419    1.51090211685330    2.79640053848053
H         5.43915527582318   -3.48354205538676   -1.58083901163003
H         6.53211687567896   -3.31799489133881    1.69724679189899
H         6.35515437006370   -1.03985898099621    4.03708776360579
H         7.96325784011210   -0.56819882498484    3.49650441340208
H         7.58418526559845   -2.27629353483880    3.61270181849808
