30
 energy: -48.311976496679 gnorm: 0.126795863331 xtb: 6.4.1 (79825abcba525fcdf90b791dcacef51065a7a4e7)
C         1.00962230319935    1.64573822047341    0.66362342420368
C         2.39157606385564    2.06145289798406    0.27723872995134
N         2.69377027606174    3.17197226445675   -0.29941645435619
O         3.26021478327526    1.06256423368829    0.52416577337940
C         4.62799574666318    1.28260873715162    0.13802551194195
C         5.37666694027930    2.17986331786712    1.12413839003387
C         5.86012531229026    1.22490681652837    2.23508732357706
C         4.82170927250557    1.23748224423829    3.27438194061631
N         4.02003694337934    1.31039261108025    4.11207258767981
C         5.83656408184468   -0.10311641920317    1.51673018777857
C         5.28466300525150   -0.05217171243918    0.29753546138498
S         5.15814604092146   -1.31560613063628   -0.85297714097224
C         6.03496136671635   -2.62821332607869   -0.12615033237528
N         6.13172261504186   -3.75079758894053   -0.74655984625769
C         6.37840008296141   -2.46784790157609    1.30130241803095
C         6.33092621471665   -1.35942511206265    2.06352429658394
C         6.75597996775436   -1.47363775465484    3.50293402982693
H         0.74913716211813    0.61282653385524    0.41943170152905
H         0.28230248970619    2.42660536300672    0.42508202095852
H         1.00773884107345    1.60191209637965    1.75642567269934
H         1.89869490406492    3.76310768025579   -0.56560583379173
H         4.63869515873186    1.74413475931286   -0.85667927921527
H         4.71109138848402    2.90514569228072    1.60837380362945
H         6.18155213615913    2.76009885644503    0.65464568830501
H         6.81292097395728    1.37156472883727    2.75998043585838
H         5.88271387456654   -3.66946018183760   -1.74045997221204
H         6.51747331640118   -3.43572323066241    1.77300739953368
H         7.53332883505680   -2.23380071252898    3.64768747579548
H         5.90583674081232   -1.80248525485209    4.10790536949261
H         7.31080414164688   -0.61029964486195    3.88330148528097
