30
 energy: -48.306669065247 gnorm: 0.132909500882 xtb: 6.4.1 (79825abcba525fcdf90b791dcacef51065a7a4e7)
C         1.02360063752665    1.85952853522227    0.65214069090383
C         2.39691843401971    2.24957629886898    0.21194867490751
N         2.86101893907017    3.30429041799271   -0.36189335232063
O         3.23462182754252    1.25914121389001    0.57330189605788
C         4.60959356619089    1.23175130509583    0.15252732022236
C         5.40010041656878    2.09113399241578    1.13972201006174
C         5.72138143873025    1.12667135979918    2.30009776648400
C         4.54026635947622    1.06811192124417    3.17195636729356
N         3.59260821783545    0.93180832816367    3.83004869553419
C         5.81155062073365   -0.19498711697914    1.57530365424067
C         5.17322433184331   -0.13190199028594    0.39963954565785
S         5.02305470440117   -1.39988387786590   -0.74299932919345
C         6.00962449883006   -2.65912771301123   -0.06402573243527
N         6.00094567038689   -3.81330997654494   -0.63170014845115
C         6.66575522197279   -2.40724843156677    1.23495006689864
C         6.44665392243682   -1.39735038076934    2.09746840288103
C         7.06703632128583   -1.40982401201812    3.46881297703371
H         0.70351037482782    0.86318045454579    0.33714642386026
H         0.33713913574953    2.69113478630011    0.47089152649270
H         1.17682524517453    1.85375823736574    1.73502108903711
H         2.13502344327931    3.99210644675440   -0.59054672872656
H         4.78363491825966    1.65152019249029   -0.84550180445281
H         4.87000464413130    2.97090651538707    1.52508948336897
H         6.31237592541333    2.40831508526660    0.61810295183583
H         6.55492676095793    1.48403558769159    2.91842939145952
H         5.70167656918501   -3.90317977674923   -1.61089371255541
H         7.22016591205861   -3.29919783707390    1.51005870766198
H         7.31568721903054   -0.35451263316206    3.63483469164591
H         7.98941043880070   -1.98650962426053    3.35247620627461
H         6.41623451170557   -1.60313584808514    4.32727063754648
