30
 energy: -48.309080820005 gnorm: 0.120653838827 xtb: 6.4.1 (79825abcba525fcdf90b791dcacef51065a7a4e7)
C         0.85116918521441    1.66148835100026    0.25366708054155
C         2.28888241814069    1.95873958758857   -0.02297417475436
N         2.71214013333139    2.92103033492440   -0.76591107111257
O         3.14972043624569    1.10846553090137    0.56802217842324
C         4.51949140842173    1.20659769553438    0.14088494877391
C         5.33005839071022    2.14016722425472    1.04056380780683
C         5.88372679910375    1.22624521758653    2.15325392862486
C         5.02386481180254    1.34287547713484    3.33884831651613
N         4.36724075466731    1.42171735014388    4.29401786590154
C         5.86648048219430   -0.16274043150369    1.56108903233159
C         5.16765719789503   -0.11265822425540    0.41970226497559
S         4.73093928324629   -1.54319744895556   -0.41623274114076
C         6.00490369154438   -2.60650994819883    0.09990794301354
N         6.42571419656747   -3.55710628027655   -0.65755577232892
C         6.69240694429391   -2.39883829403061    1.39045060669121
C         6.43978133931375   -1.34529672079986    2.18924189466224
C         6.94575171493990   -1.21148427036415    3.60051926809432
H         0.30883257830927    2.56947125709339    0.52903357394703
H         0.79960004720153    0.89220008036597    1.02902879444359
H         0.47041383207796    1.23888901545220   -0.68045078874412
H         1.93511741600224    3.41418775142873   -1.21920366132906
H         4.50142665754735    1.49035091433097   -0.91822606808669
H         4.76429429646811    2.94044202240888    1.53349433889797
H         6.10120038753688    2.66774273625698    0.46442063517877
H         6.83293377576140    1.61708444849869    2.54195909628121
H         5.93632911529657   -3.74997083557180   -1.54059829238988
H         7.40960958109446   -3.19373345487713    1.57042746666168
H         6.04071725852119   -1.22119446656285    4.22010856422356
H         7.44354430809944   -0.23779182098642    3.56889547767363
H         7.52945080248357   -1.99582464550440    4.09242119677509
