30
 energy: -48.305627430693 gnorm: 0.133442711716 xtb: 6.4.1 (79825abcba525fcdf90b791dcacef51065a7a4e7)
C         0.98711429860054    1.64424729642054    0.61607745747672
C         2.39560046436827    1.93830046312159    0.21407311672457
N         2.83690908133425    3.06643250593860   -0.22143878606556
O         3.19979522863198    0.86998942532056    0.37302934370928
C         4.56080770474939    1.17606537931830    0.02329906837288
C         5.25743702167736    2.24139040868976    0.87051994551539
C         5.66752311445582    1.31046601963307    2.03030042145524
C         4.67177000256721    1.35404932215300    3.10973347265242
N         3.91623704017671    1.42966969242073    3.98903526755911
C         5.85887788573718   -0.09277674196347    1.50634314795532
C         5.19548206628703   -0.14025486419781    0.34389827652976
S         5.11193748035416   -1.48366163576739   -0.71639937811740
C         5.98081404194211   -2.72650004873571    0.13237994647374
N         6.25032433229162   -3.87408582285216   -0.38228242666330
C         6.42627392456367   -2.43442774744759    1.50989513293965
C         6.53825259782776   -1.23298097073605    2.10640477522788
C         6.99906649077794   -1.05329321944461    3.52801608531873
H         0.32813901111697    2.38477639479139    0.15590696076826
H         0.76256749646144    1.48735731808017    1.67466797205039
H         0.79972317938342    0.71678588235053    0.06758777967769
H         2.11884053913020    3.79659723658279   -0.16077784538771
H         4.68087196767476    1.35142475961145   -1.05252252168420
H         4.51584061285423    2.93347785050512    1.28832258633453
H         6.05093392020771    2.77999346465587    0.33647283308199
H         6.53416963519208    1.72500253079772    2.56126584294369
H         5.94205836989542   -4.19039653011177   -1.31038708030855
H         6.92851486198609   -3.34090984800441    1.83342868816291
H         6.12533707239137   -1.17949003774822    4.17897219336815
H         7.44772435113709   -0.06952974497201    3.69471974141133
H         7.76756721565382   -1.77152203179848    3.83036690708737
