30
 energy: -48.309127557441 gnorm: 0.127825741377 xtb: 6.4.1 (79825abcba525fcdf90b791dcacef51065a7a4e7)
C         1.14272546812718    1.36296722891263    0.44179246419966
C         2.48391693083923    1.70172885017051   -0.12243625464160
N         2.80041697638283    2.12812083088665   -1.29509281495135
O         3.44954149070873    1.55825494515761    0.80507072850307
C         4.82184561510932    1.60610885564424    0.37747272755988
C         5.63555917824746    2.33309331446951    1.44862014520573
C         5.93399037174023    1.24186662052404    2.49745024569081
C         4.92438296424379    0.99633838196466    3.53620338724015
N         4.11713114811717    0.84714043579468    4.35827670946689
C         5.89182929582275   -0.03157867778022    1.68701989131319
C         5.36010706370015    0.21416540439526    0.48264981742073
S         4.99417985573391   -0.91169360031873   -0.75609596684064
C         5.50937007089679   -2.43966743205053   -0.10810291967579
N         5.27077847032012   -3.56372156298606   -0.68606701021230
C         6.01707098988537   -2.37892587736273    1.27747956234773
C         6.34260515084605   -1.35664244561468    2.09037632359720
C         7.15282222755575   -1.46061632824651    3.35463631509967
H         0.34306256847908    1.90682235167220   -0.06727483119725
H         1.13019143087487    1.60938719847272    1.50704816279364
H         1.03125033162645    0.27891044295167    0.34940626498744
H         2.04268973333521    2.29044056221259   -1.96736094811340
H         4.91092483964236    1.96080678288941   -0.65636122870393
H         4.95676049341696    3.08636002599060    1.86734545187856
H         6.57497067839814    2.61499695998637    0.95569699812083
H         6.91618562359247    1.41982898542225    2.95402749875387
H         4.68460183401708   -3.34131298728397   -1.50055455825545
H         6.21062967485360   -3.31943375762907    1.78404602100406
H         7.80909858982248   -2.33711594076192    3.29043111077966
H         6.47798921011261   -1.53260135339644    4.21271152399273
H         7.67988841416773   -0.52592642489726    3.57008464022412
