30
 energy: -48.316432706682 gnorm: 0.119181636267 xtb: 6.4.1 (79825abcba525fcdf90b791dcacef51065a7a4e7)
C         0.99573196175526    1.65768318772783    0.68127142101126
C         2.34471863596615    1.96246909834589    0.11625060540229
N         2.65310878552618    2.98638340265458   -0.60040888111028
O         3.22668358777529    0.97420390837481    0.35864386132373
C         4.59642352325621    1.23011959273329    0.00273893131756
C         5.28106469337267    2.20401906263075    0.96231135852370
C         5.72094222792603    1.31833911895461    2.14635538106204
C         4.52586859034231    1.13717436868042    2.98156653299593
N         3.73981029524025    0.75794879243251    3.74839141168912
C         5.91756508967974   -0.04492169261661    1.52740688140909
C         5.39952891743771    0.00174427793600    0.29327287110032
S         5.22578570585983   -1.39263993112810   -0.68726693094623
C         5.85148900848967   -2.70686759207200    0.26211233717671
N         5.96586115662393   -3.89676888721287   -0.21277717024279
C         6.40633402661925   -2.41219367998871    1.59875097791838
C         6.52669551815340   -1.20033861724195    2.17212472311815
C         7.26425861780791   -0.95401333799050    3.46089938417050
H         0.69053466095068    2.61764683067915    1.10519720534046
H         1.04259175522199    1.00654117908101    1.55846458697923
H         0.24918612214683    1.35942704449743   -0.06024972683673
H         1.88805460950486    3.66617607634380   -0.67123783937614
H         4.69304776384463    1.59702321085786   -1.02614583342649
H         4.55196739573725    2.93774604449856    1.32778518933967
H         6.12983403069955    2.68222491097989    0.45649851014881
H         6.58851182445486    1.66412330283604    2.72306778124514
H         5.52087217741067   -4.11695527734652   -1.11275569455864
H         6.80576132379685   -3.24292239131014    2.17231635643506
H         6.65116842135201   -0.26364713273043    4.05300364757690
H         8.22976692932799   -0.47484015549457    3.27365284449456
H         7.32272188412324   -1.87092939122508    4.05563374232681
