30
 energy: -48.308980028845 gnorm: 0.129758466574 xtb: 6.4.1 (79825abcba525fcdf90b791dcacef51065a7a4e7)
C         0.96519221980185    1.56652780036237    0.40350633036352
C         2.39069056485569    1.58865557644151   -0.04300554098970
N         2.73653478390609    1.31103239769541   -1.25148514543159
O         3.28675094953673    1.77385565563659    0.94495269286657
C         4.65451817593573    1.61917954174022    0.52825524637564
C         5.52106195280801    2.24684595897169    1.62056001086016
C         5.89380933677661    1.12246920687480    2.60885032601308
C         4.97836640796392    1.07739414817815    3.75712371188462
N         4.32317671701676    1.17563063230198    4.71148009884777
C         5.78008039166677   -0.08024009125846    1.70287357174517
C         5.08194536975401    0.18684371248633    0.59161317548968
S         4.88504874429406   -0.80788075038106   -0.78958459640367
C         5.90967521898728   -2.15689749975670   -0.40188062048044
N         6.16476964118469   -3.14649327173636   -1.18296523930561
C         6.38392609047152   -2.29167493092564    0.99031539211594
C         6.29776396920728   -1.40839711732145    2.00235958083855
C         6.85212420136615   -1.71635019490016    3.36744757681412
H         0.57715670513066    0.56432798409904    0.20498019500890
H         0.36591250099240    2.42360078624908    0.08422695165195
H         0.83440947474607    1.55778086185316    1.48930575715923
H         2.05210722509443    1.13439568576775   -1.99499109784420
H         4.73437451170332    1.88578222549528   -0.53245411417104
H         4.89538915005496    2.93973583060427    2.19670794552856
H         6.41739147415292    2.69491518247932    1.17249281104296
H         6.92432010234057    1.16309441016838    2.98466683993459
H         5.81384854194580   -2.93780989548266   -2.12623838048858
H         6.75555505123081   -3.26500225347009    1.29552916365638
H         6.50927328047672   -0.93001470826425    4.05096955424408
H         7.94122502471246   -1.81797779225005    3.34730473838498
H         6.36753274153615   -2.64276816793762    3.69114932461039
