30
 energy: -48.298870261647 gnorm: 0.150284650091 xtb: 6.4.1 (79825abcba525fcdf90b791dcacef51065a7a4e7)
C         0.96730945581574    1.91854878264532   -0.85634140921672
C         2.43436131894570    2.05907445803595   -0.61155700808124
N         3.26393069397515    2.82525488694656   -1.22952790092892
O         2.85083990157613    1.36763637744559    0.46628516543595
C         4.25494284516317    1.40290231367596    0.77547760472318
C         4.40530632231882    1.84154590615700    2.23252107255923
C         5.65900387022565    1.06862963591414    2.69156842317785
C         5.68153738965095    0.57677509724116    4.07582664597126
N         5.50123522044046    0.35093387563072    5.20108528858504
C         5.70658053416778   -0.08792212080942    1.72184546689967
C         4.77680214989632    0.00084089173458    0.76202279820522
S         4.65124975779544   -1.17597836182383   -0.47704363194427
C         5.53762380808727   -2.56016002023842    0.08722785497213
N         5.57064085185704   -3.69133498101868   -0.52417981461331
C         6.60361726285934   -2.25103782989576    1.06159443801891
C         6.71184394989491   -1.13823810848477    1.81112835267236
C         7.77853145393938   -1.13742660569801    2.87310432387954
H         0.87727634622904    0.92693336481978   -1.30687616229103
H         0.51979735688073    2.63677084364832   -1.54882938922157
H         0.35962465416580    1.83836323186536    0.04943477352873
H         2.93031518620328    3.39974587859490   -2.01125899882383
H         4.69000813372377    2.06662315018507    0.01867426935356
H         3.54019432639451    1.52898146670542    2.83034547462856
H         4.56992039098409    2.91216738638600    2.41030957543576
H         6.51766682115839    1.75234496180018    2.70007011677403
H         4.74789497444517   -3.88667771919993   -1.10846488630871
H         7.39808997405477   -2.98819330450961    1.12519186813658
H         7.80585789242610   -0.29539668074872    3.57546567561165
H         8.71942819198267   -0.90326495199739    2.36639315958245
H         7.81427264623055   -1.96678004668158    3.58637667904504
