30
 energy: -48.306235274772 gnorm: 0.137178006721 xtb: 6.4.1 (79825abcba525fcdf90b791dcacef51065a7a4e7)
C         0.93566688961963    1.67443927414021   -0.30121543073262
C         2.39699183785280    1.98447449475033   -0.28345081192459
N         2.92382278681515    2.80503377570795   -1.12383014718796
O         3.07327757519095    1.26462452091519    0.63182967753100
C         4.48958442782506    1.48519026091754    0.51446567606310
C         5.08992805026170    2.16319098526585    1.74649469119065
C         5.90344505599027    1.08969893803850    2.49861592250526
C         5.38156339298978    0.96654729874906    3.86648744596035
N         5.01050311905991    0.80378068182348    4.95531312550152
C         5.77715426332231   -0.16780167220283    1.67218947430739
C         5.01658508399647    0.08759385939054    0.59983991004663
S         4.82050356763664   -1.09632060616490   -0.62320992728969
C         5.61119345248366   -2.53456467331500   -0.05199762818657
N         5.70525710287107   -3.58214413295437   -0.79239984722264
C         6.38231490457450   -2.46533490318880    1.20572552698392
C         6.53198773303198   -1.37481761884436    1.98045589914956
C         7.26883112789147   -1.41140363368102    3.29245394864536
H         0.69110363066015    0.95924702037577   -1.09056802100364
H         0.30753437887217    2.56830038895198   -0.34716609189347
H         0.84160725671055    1.15397503939064    0.65607804425488
H         2.21887821114159    3.29263639972391   -1.68751404765320
H         4.55975527742129    1.98819019893252   -0.45745277708011
H         4.22691807187006    2.42302763169221    2.37196089154567
H         5.66557599111879    3.06059435564725    1.48527928077686
H         6.90201434176729    1.50207869338436    2.69263451777474
H         4.98176306092861   -3.63240193237326   -1.52074668226753
H         6.93556301062176   -3.38859340931528    1.34764054555969
H         8.09077990711739   -2.13341611900269    3.21390000840500
H         6.71911715784767   -1.86386832000849    4.12309512397331
H         7.73712071635451   -0.44245210557354    3.49170193528790
