30
 energy: -48.311138745426 gnorm: 0.132060644040 xtb: 6.4.1 (79825abcba525fcdf90b791dcacef51065a7a4e7)
C         0.94767898072347    1.71945264564170    0.37004807907958
C         2.36406283259997    2.05395077066327    0.03259315796157
N         2.76427024661859    3.19964381927718   -0.39674037753691
O         3.15994124976457    0.99292866655996    0.26517522346749
C         4.57216203152747    1.20454198274026    0.09429225334714
C         5.06757059094176    2.18661746694684    1.15640860393213
C         5.61203518695045    1.24982377463135    2.25452401115953
C         4.66941754209348    1.24664379191962    3.38149398863623
N         3.86506105262251    1.05897770521002    4.19850819693995
C         5.75997152134834   -0.09258757102641    1.57903550162401
C         5.27774939415860   -0.09356076856214    0.32960077804459
S         5.17923109916929   -1.42122678116321   -0.74907881754644
C         5.96000721959341   -2.72402418328364    0.09539007205159
N         5.96897055672438   -3.97038588845183   -0.22236519346292
C         6.54575343051874   -2.39757939836532    1.41130191563667
C         6.52708355755652   -1.22695153470527    2.07546993013834
C         7.34671380942592   -1.09874454700756    3.33140983964066
H         1.03310069123388    1.08838233616792    1.25821588808080
H         0.48010762897723    1.04508724403785   -0.35262608363637
H         0.36191938339056    2.62883728655660    0.53143674768212
H         1.89876315554686    3.73313134956179   -0.53360251698671
H         4.68219335263380    1.67202084254722   -0.89156527383456
H         4.28806138285957    2.87800261188489    1.49971792027263
H         5.87639698277479    2.81878492390495    0.76769139936292
H         6.59244585833436    1.50561925868630    2.67666684107918
H         5.43200468521710   -4.10885862678980   -1.08778506831955
H         7.09835049299499   -3.25344856917361    1.78647408624593
H         7.01249010950489   -0.42108007069983    4.12648088650162
H         8.39909012157188   -0.85532618327940    3.15784096823865
H         7.55224668068318   -2.06102958693297    3.81060265037914
