30
 energy: -48.310470922294 gnorm: 0.134964265933 xtb: 6.4.1 (79825abcba525fcdf90b791dcacef51065a7a4e7)
C         1.18568084990559    1.65149505621455    1.12512827886107
C         2.36194299291998    2.10994671611222    0.32629321398755
N         2.46162763880596    3.17205606425201   -0.39418753180791
O         3.25541619325923    1.11148014286573    0.19192474660394
C         4.66388053980304    1.22476999047739   -0.07592265510924
C         5.39043789336826    2.17146365856996    0.88004724568664
C         5.77202924870797    1.29037867016373    2.08750686210559
C         4.68243917000074    1.15546034093572    3.06382126653086
N         3.76332174890134    0.99219425543848    3.75540453343696
C         5.91715430944707   -0.06977293240676    1.44784745362412
C         5.31886732955742   -0.08031968877135    0.24969579942616
S         5.10130889338359   -1.45040204674332   -0.75603526327512
C         6.13222337584158   -2.63712971113228   -0.01514880430739
N         6.50366377117341   -3.76632364892125   -0.50649309051398
C         6.49177703478039   -2.37137482692852    1.39246764706153
C         6.32621434698730   -1.27519287277544    2.15588834205360
C         6.62148655020938   -1.24824560289583    3.63159283954204
H         0.33341036071441    2.32752953097413    1.02024234332448
H         1.40802754519587    1.48638212930542    2.18293226496998
H         0.91472334949702    0.69866959554115    0.66161268642420
H         1.68356116649871    3.81095620229539   -0.19705333784620
H         4.74584398598126    1.66669856431025   -1.07619236266336
H         4.82655080030912    3.07774393677512    1.13341786554012
H         6.34507850921573    2.50165767417422    0.45043106362033
H         6.67518155758989    1.64109333725466    2.60340997527664
H         6.13968216300721   -3.91429633549386   -1.45627204269772
H         6.87140464867276   -3.19426222056657    1.99027097657203
H         5.59676291355887   -1.32858839562569    4.01442316085903
H         7.07108124137257   -0.29856510574502    3.93629937093118
H         7.23995171003679   -2.11071645942827    3.89900044781205
