30
 energy: -48.306580080999 gnorm: 0.133596029799 xtb: 6.4.1 (79825abcba525fcdf90b791dcacef51065a7a4e7)
C         1.01875332881351    1.84422750801748    0.79888747688526
C         2.27699746220556    1.86252189534996   -0.00634232812818
N         2.64599165608266    2.83458728549155   -0.76531398194205
O         3.20563139189157    0.93583401848658    0.29725832987767
C         4.57933679881886    1.21697074130631   -0.02249822600975
C         5.16091895969326    2.15873840045515    1.03240879323485
C         5.64257117291204    1.25601569315104    2.18695818992424
C         4.66033194964657    1.06755258703580    3.26319565540016
N         4.06679159809063    1.23609094366220    4.24758619853367
C         5.87086082919338   -0.06780498535244    1.49730575728306
C         5.31650757089264   -0.04967739508849    0.27829393897228
S         5.23514731593097   -1.38448685161596   -0.79297472974884
C         5.97994656836303   -2.67484723928230    0.10160009635967
N         6.01359576061509   -3.93170734100349   -0.16976046499845
C         6.61010996563000   -2.37022813010632    1.40213455563488
C         6.47835036625420   -1.23752715760807    2.11730234663336
C         6.95493675764300   -1.06370583325816    3.53443578160485
H         0.73575906497577    2.87644932590808    1.01984227829975
H         1.02775618778459    1.07648576707417    1.57743816528886
H         0.29416062293586    1.41642904506679    0.10024957572922
H         1.93106976629568    3.55912141952423   -0.89329715790318
H         4.65245209576582    1.52792778769461   -1.07155410669626
H         4.53580034804090    3.00953679125768    1.33053307909079
H         6.08422249469151    2.50224083268225    0.54820478236072
H         6.48452179577851    1.80184684158011    2.63196201289059
H         5.74172177428856   -4.19701451999526   -1.12482864159303
H         7.22200426931187   -3.15586318271044    1.83456089131517
H         6.21068430819731   -0.63012690296284    4.21353087394701
H         7.78308581564392   -0.35236933543729    3.60545714366645
H         7.22648119015946   -2.05174060427555    3.91903021432514
