30
 energy: -48.311226527762 gnorm: 0.133778142186 xtb: 6.4.1 (79825abcba525fcdf90b791dcacef51065a7a4e7)
C         0.87963709149201    1.57975635282690    0.36953493451678
C         2.26338158761620    2.01638767337470    0.01384928662053
N         2.58303173568326    3.11001662774746   -0.58523776892673
O         3.18116915821925    1.08620386957953    0.33897821448210
C         4.58901022068584    1.31832453961515    0.15883329134113
C         5.23018588588783    2.16137205323037    1.26162864844972
C         5.77990248517163    1.17080761394822    2.30875576408818
C         4.73415942231008    1.14591003455785    3.34045381301148
N         3.82785038047124    1.21768330942888    4.06376051113001
C         5.88762382232645   -0.13283100609818    1.55432863838577
C         5.12410716684073   -0.04652504542085    0.45741499048716
S         5.23257766756122   -1.31982752152236   -0.68402589245242
C         5.89062840241904   -2.71337427573391    0.11910339189064
N         5.94393497505772   -3.90816710481827   -0.35428295907299
C         6.64337994677985   -2.45450960572687    1.36314630908155
C         6.61293233607670   -1.29578230189671    2.04744231409257
C         7.27727029673632   -1.13060248291511    3.38795949396969
H         0.73541152015595    0.67881564715667    0.97111077138487
H         0.36769715235104    1.23940537182754   -0.53474838110308
H         0.30288140871332    2.38072097142842    0.84065019895483
H         1.82312576924629    3.78942883724105   -0.70092996625628
H         4.70375978059127    1.70904951608785   -0.85936359454811
H         4.50559946370199    2.89272800489693    1.64057753442160
H         6.00691564232022    2.79873752753931    0.81959585253106
H         6.71508332486692    1.41407040533513    2.82942927857819
H         5.53492418075650   -4.14055108978251   -1.26815736861817
H         7.10581456138878   -3.34306669453389    1.78177518090427
H         6.59836691579679   -0.90761507985241    4.22008890491089
H         7.95295069298627   -0.27206087100856    3.33106648881159
H         7.90795881659199   -1.98817986379778    3.64223294362164
