30
 energy: -48.308569404085 gnorm: 0.142522188956 xtb: 6.4.1 (79825abcba525fcdf90b791dcacef51065a7a4e7)
C         0.73439924967210    1.81905089633633    0.58065969778859
C         2.18854224516882    2.05158350107909    0.32905526700756
N         2.66054477787197    3.12722595761753   -0.19754965947613
O         3.04562876460825    1.01770319030108    0.42794408092907
C         4.44402122868531    1.32905986382593    0.30183186294446
C         5.09874206818653    2.08694585382907    1.45722898539944
C         5.54349801718033    0.98242719864052    2.43810219814141
C         4.48971967022369    0.68836306755707    3.41875349591626
N         3.59587120727244    0.50478034388107    4.13781708958462
C         5.87648041480296   -0.16468484602566    1.51425438146803
C         5.25868956951391    0.07516759687937    0.35045390098339
S         5.51919310424852   -1.03385534012493   -0.92945180700352
C         6.09695354951912   -2.51741129410820   -0.23283519806350
N         6.16659433965319   -3.67126261751668   -0.79696595472622
C         6.75420797846416   -2.34377166060901    1.07833018437592
C         6.61117735576452   -1.33957624005260    1.96318671884543
C         7.22791571918324   -1.39052311637310    3.33528512380966
H         0.13956661571945    1.64501596806656   -0.31949287147582
H         0.41888504655607    2.66608942346235    1.19598573631867
H         0.63954270746981    0.97597841601821    1.27085681931921
H         2.00454700017931    3.91282586547012   -0.26785199974373
H         4.58411869634920    1.81512444656874   -0.67113903814152
H         4.47283568275494    2.84122036831377    1.94999715740614
H         5.97915214708771    2.63144867491908    1.09208289307932
H         6.38097634539252    1.43011496513696    2.98859898092902
H         5.69613284773137   -3.68519508901268   -1.71071125464108
H         7.40320332920380   -3.19264507394062    1.27029023138958
H         7.69931675039674   -0.43649503324770    3.60114988548338
H         8.10169635336674   -2.04761759993318    3.29517536676383
H         6.51149338657592   -1.68844164580436    4.10719547874228
