30
 energy: -48.311390764801 gnorm: 0.125884407645 xtb: 6.4.1 (79825abcba525fcdf90b791dcacef51065a7a4e7)
C         0.91798417658898    1.37078979553127   -0.19289213714827
C         2.35855463884371    1.76650272597945   -0.20161235307181
N         2.93164400069656    2.48232881183603   -1.10508753594394
O         3.07564189252972    1.20068519656915    0.78779208840026
C         4.45022640312517    1.58115416883945    0.97247949792022
C         4.81699699232527    2.02497462958117    2.38898776890914
C         5.73875818229765    0.89854739081484    2.90026013378701
C         5.10387824788249    0.42461201692870    4.13756043379399
N         4.70836395819317    0.14465993160640    5.19345594782073
C         5.79620631818787   -0.15746255312234    1.82240089894558
C         5.16825865326163    0.29159362639061    0.72802608207798
S         5.03590762011085   -0.45212248250519   -0.80993422089568
C         5.92001886034458   -1.93488478041884   -0.61047677075469
N         6.07996662710746   -2.76346458603796   -1.58121791226434
C         6.34775357285970   -2.30769764506824    0.75310021098389
C         6.38889845796581   -1.48802617261474    1.82000359787710
C         7.19605515356069   -1.87828420321212    3.02905792288742
H         0.61690304970024    1.13439987184819    0.83075751870710
H         0.79491647157107    0.41989890176895   -0.71854454590230
H         0.34266727475852    2.18442602842059   -0.64361108933391
H         2.33589583288335    2.99573887108206   -1.76382644057371
H         4.64880986272096    2.42122383140484    0.29616156558530
H         3.92329620376179    2.21989812947981    2.99463865833718
H         5.46280167538939    2.90717346114868    2.29101638527355
H         6.68635333218610    1.34738140415201    3.22499441800386
H         5.77620188637643   -2.40756815564882   -2.49638090391069
H         6.65919441052122   -3.34706208541339    0.78992109729780
H         7.26121616964073   -2.97260850302087    3.06484780763402
H         6.90910175998064   -1.48848097456797    4.01017244161744
H         8.18922047654747   -1.54547825411792    2.71168619296810
