30
 energy: -48.305002840423 gnorm: 0.126023887297 xtb: 6.4.1 (79825abcba525fcdf90b791dcacef51065a7a4e7)
C         0.95004338924517    1.42299412047751    0.14150846448637
C         2.42155550919212    1.58974620923168   -0.05535148765512
N         2.87507767676053    1.67378802831328   -1.25716695650768
O         3.14035357590764    1.76156017408622    1.07030123425262
C         4.57565573743904    1.75148956624072    0.97999657884542
C         5.16762511389664    2.20323576171061    2.31547049401045
C         5.72852881096153    0.90987477374480    2.94195740536571
C         4.81220149391585    0.17737178796847    3.82648154398721
N         4.02919182370551   -0.49190853140432    4.36377083529469
C         5.90857546922254   -0.00700389981292    1.75572195373918
C         5.16013829788064    0.39870006610820    0.72185926705791
S         5.03696099663584   -0.33874205630154   -0.81987962217488
C         5.84213611999077   -1.85484807278037   -0.54944376983361
N         6.09450177722073   -2.61675244922837   -1.55457034787062
C         6.43576549141822   -2.17117728105054    0.76540549687724
C         6.45041002396307   -1.35663760453180    1.83692204697072
C         7.16443377041873   -1.78752492450996    3.08996706889695
H         0.66346843452030    1.92630914928264    1.06829724059495
H         0.73066778972405    0.37295085709534    0.35348274909930
H         0.34950702899492    1.87320119329293   -0.65398553390754
H         2.06136099094070    1.56649133226910   -1.87263043007646
H         4.83343219506026    2.31327327822743    0.07417720594242
H         4.41652942735448    2.62181306301866    2.99676161013564
H         6.03794121803138    2.83310510792583    2.09018990297998
H         6.67883418798282    0.97579047636831    3.48731574313333
H         5.83087426066862   -2.45412143582773   -2.53462660579201
H         6.77106517516006   -3.19132329020530    0.92511101692961
H         6.69614640426894   -2.56459881964615    3.70635626731610
H         7.38134535436795   -0.94186015903860    3.74926592304602
H         8.17199645268668   -2.12286019546306    2.82495826821705
