30
 energy: -48.308186237078 gnorm: 0.138215710297 xtb: 6.4.1 (79825abcba525fcdf90b791dcacef51065a7a4e7)
C         0.84277050798292    1.61708089199641    0.62461332518580
C         2.21088719749581    1.97038881497335    0.13949657941136
N         2.66728056389542    2.98432236826337   -0.50915560218481
O         3.15434062715529    1.09782863342702    0.54176403937633
C         4.54766438507294    1.29874038083693    0.24743084945489
C         5.20265141319131    2.20022764210908    1.29447700770547
C         5.69680679627076    1.22352668921655    2.38155895021559
C         4.72584560277967    1.00557763297728    3.46245296796822
N         4.02432337832654    0.83249523049599    4.37219420210949
C         5.83850501594535   -0.06780547844923    1.61174035855556
C         5.23076147466362   -0.02116876564243    0.41922253618795
S         5.22668062717123   -1.14917981603715   -0.87055525261269
C         6.07400663013924   -2.50803724674782   -0.19559962137554
N         6.27342631704257   -3.61306070056493   -0.82299191639226
C         6.55497510600131   -2.39457658845286    1.19619224175413
C         6.45969637411087   -1.32454494340521    2.00723557492909
C         6.97613936907869   -1.45894131846852    3.41465870139083
H         0.06129774509642    1.91586408719658   -0.07853501041533
H         0.75778295231757    2.17534821509195    1.56097026479492
H         0.96912941169964    0.54108992464607    0.77433939788552
H         2.05464241010960    3.61122892699755   -1.04217096017527
H         4.72692985736815    1.64902013509962   -0.77615420330668
H         4.46763309737659    2.92339717968296    1.66902095199203
H         6.01359958575026    2.83959356719026    0.92230617366088
H         6.61065508285518    1.51880127043808    2.91309928493327
H         5.68924901775950   -3.67434363728683   -1.66646086847067
H         7.20083920382489   -3.24550392944012    1.38961363136664
H         6.09400008826082   -1.71010175731041    4.01617451250325
H         7.46144923538054   -0.57518615912941    3.83930638720740
H         7.82710143696084   -2.14098258198256    3.50709913833332
