30
 energy: -48.311303249933 gnorm: 0.129904471130 xtb: 6.4.1 (79825abcba525fcdf90b791dcacef51065a7a4e7)
C         1.05014898720828    1.39403232619600    0.09699202679284
C         2.42703818945347    1.82295767572618   -0.29301719075581
N         2.88788672603027    2.36844622122564   -1.36407586288743
O         3.26873739117380    1.47108349406168    0.69744318981639
C         4.69090459870698    1.54279396416802    0.49583295351852
C         5.33387571346988    2.31624053467645    1.64751063757032
C         5.89116685347099    1.17756301521974    2.52655644446721
C         4.91412905479566    1.01674917879426    3.61197588181859
N         4.28123412120893    0.81666456560802    4.56545908128805
C         5.95602018452833   -0.06881767216654    1.67651701015853
C         5.30365496188822    0.17845310490017    0.53331855131783
S         4.81838196609384   -0.97489784178122   -0.63725568228417
C         5.49940655015609   -2.43513985176097    0.01383475751488
N         5.34035174017714   -3.59813565135961   -0.51210105034892
C         6.40851970027252   -2.37018265582283    1.17598036999531
C         6.64649137323046   -1.31549222245901    1.97775005040497
C         7.40206668650604   -1.45975627652470    3.27154656803302
H         0.68235041196609    2.09294594981070    0.85239431255645
H         1.02702963398035    0.36986323630787    0.47934366740991
H         0.43611775470136    1.60455223559804   -0.78322842516920
H         2.21173341944401    2.39426918062795   -2.13517416621465
H         4.81872191574111    1.92643314515107   -0.52350118418413
H         4.58472144029105    2.90344716291055    2.19291463423043
H         6.08863094229044    3.01473584247102    1.26360218258817
H         6.80887905410349    1.44595541244602    3.06563967501205
H         4.52769470146838   -3.64615806508269   -1.13958887737902
H         6.82987320981210   -3.33243953372421    1.45011998570281
H         7.79054791492159   -0.49544022274020    3.62118842107437
H         8.22802702215393   -2.08732347560784    2.92394989196772
H         6.81936974914376   -1.87038358073288    4.10203525204998
