30
 energy: -48.304551640419 gnorm: 0.133593678422 xtb: 6.4.1 (79825abcba525fcdf90b791dcacef51065a7a4e7)
C         1.01050699756121    1.75685302903440    0.34085265646541
C         2.45950304254343    1.61350575423590    0.00653239201195
N         2.92000458796611    1.22473148495564   -1.13096428942506
O         3.34550629480882    1.87975979207888    0.98499637953961
C         4.74988273139634    1.72796828962885    0.71474684850062
C         5.48162250653804    2.24379072564756    1.95429397039418
C         5.87353436673228    0.99148819155713    2.76548131646209
C         4.88699930306637    0.66975917425358    3.80559589476205
N         4.28885730765711    0.29685226090020    4.72911452468377
C         5.71438198787916   -0.13021842671289    1.76714138153814
C         5.25485913356382    0.32482825426532    0.59436807707222
S         4.91066008797604   -0.47936092655259   -0.87898154709175
C         5.67340310161862   -1.99250515931989   -0.49344605295751
N         5.97401773081333   -2.92207279167252   -1.33010668409559
C         6.08085067018650   -2.31816736828340    0.88829893543188
C         6.19430074618666   -1.49377060795902    1.94628576885492
C         6.96537658269738   -2.01328286887500    3.12999379321054
H         0.60248033873627    1.00100763498425    1.01657496908401
H         0.46481774057346    1.91962276512863   -0.59262409945494
H         0.82939618340655    2.65671129153446    0.93549121102581
H         2.12130163623370    1.12903215666087   -1.76764155974897
H         5.06141713675946    2.33893677769443   -0.14095297905549
H         4.95408932445374    2.96101472378434    2.59523683087206
H         6.37160364553308    2.70968763494424    1.51178916464441
H         6.85797957330260    1.15601981212677    3.22225027375674
H         5.86908147078510   -2.59494906116325   -2.29883628357639
H         6.44116629967202   -3.32975673518230    1.04795237851641
H         6.81836585531778   -3.10021017154583    3.13702476643677
H         6.57116785989306   -1.52800459894165    4.02775712285233
H         8.02376050278488   -1.88925997230648    2.88038656642865
