30
 energy: -48.312712426856 gnorm: 0.129192883468 xtb: 6.4.1 (79825abcba525fcdf90b791dcacef51065a7a4e7)
C         0.90021054541593    1.87655502969758    0.05391548370912
C         2.33822460540885    1.97982452757316   -0.33769528666592
N         2.83240396623331    2.58050226534662   -1.36340422274494
O         3.07946105483089    1.32104888945232    0.57327558992087
C         4.50901103215880    1.37366677863589    0.42506335014175
C         5.11189863980075    2.19237383847621    1.56709584795178
C         5.93252642358769    1.22276998440280    2.44249282011428
C         5.22812668449287    0.89965025195443    3.69069711822332
N         4.65912919937710    0.70098045787034    4.68392027777688
C         5.90676794052883   -0.05987987313552    1.64601075703913
C         5.09229625109561    0.00526107648467    0.58487057940213
S         4.73057104581300   -1.26530721546023   -0.50635048927966
C         5.83437496983643   -2.52038330289423   -0.03051343703148
N         5.91326210083256   -3.65335837020234   -0.63434326807980
C         6.59373626067077   -2.39056319548634    1.22956821620779
C         6.57411496483302   -1.29995089709909    2.01824868598888
C         7.24728509093134   -1.31214409891971    3.36446892476737
H         0.96349695906115    1.53268641695869    1.08935638786554
H         0.23217326946304    1.24153108323542   -0.53440449001435
H         0.36993431400684    2.82962894050886   -0.02731424902249
H         2.13172746437013    2.88050645326458   -2.05005743931030
H         4.69847100500617    1.83131139177312   -0.55331525573597
H         4.23606629906761    2.64234874655439    2.05077918092149
H         5.81364162430790    2.98068874108964    1.26534552988014
H         6.81173920016481    1.77744726824695    2.79485470343713
H         5.39990194205943   -3.63755788272853   -1.52466359329509
H         7.12134922616974   -3.29878182131428    1.50414625499384
H         8.08691496789813   -2.00509033368029    3.23060430535525
H         6.59131296913729   -1.84991575609040    4.05539347416232
H         7.48805732254654   -0.32412968559220    3.76909000024661
