30
 energy: -48.314155581247 gnorm: 0.118433767041 xtb: 6.4.1 (79825abcba525fcdf90b791dcacef51065a7a4e7)
C         0.97347273411667    1.99177999847661   -0.06647601882591
C         2.44298397430485    2.21582961613058   -0.21562864380988
N         3.09534701184674    3.24800433024410   -0.62323584989250
O         3.11931982920505    1.15947846508761    0.27424563724968
C         4.55066507366248    1.29945154508052    0.27160457022856
C         5.05413568765605    2.11713269905558    1.46152381625193
C         5.85402745622604    1.13463347644234    2.34172259053127
C         5.20932664989139    0.84830145164976    3.63051045408525
N         4.54173568433134    0.68728906478483    4.56758962903413
C         5.84788661652409   -0.16090207185947    1.56597277816138
C         5.12731334999084   -0.07065066264692    0.44069290317893
S         4.82862160485054   -1.35183814959223   -0.65716600770092
C         5.70975791537597   -2.65561240570075    0.08025617734583
N         5.52568931611327   -3.87696429522537   -0.27874864466770
C         6.51797641024119   -2.45968940968754    1.30078296754838
C         6.54466896278412   -1.34371750021177    2.05293406524668
C         7.31586077209522   -1.25856156086512    3.34275082727620
H         0.65944758416357    1.25130989430246   -0.80639553402605
H         0.43944164964624    2.93319793479193   -0.22201597054843
H         0.74876418829126    1.56584788998485    0.91547557823139
H         2.49450923995228    3.95838187765058   -1.05543999725501
H         4.82833061001002    1.86464037642014   -0.62618259946739
H         4.28324965275700    2.62034587580673    2.05819834195244
H         5.76327379293890    2.83935379510389    1.03672186981900
H         6.88374569563585    1.50582151124863    2.42382430377394
H         4.78841534166775   -3.94393218750383   -0.99177106912597
H         6.85457292641551   -3.39468987810880    1.73794028980901
H         7.07660427431113   -0.48176712848547    4.07924202151918
H         8.34004637604435   -1.17805559868239    2.96666951336266
H         7.04826728445522   -2.17792701365716    3.87286672023176
