30
 energy: -48.307560265380 gnorm: 0.132671465985 xtb: 6.4.1 (79825abcba525fcdf90b791dcacef51065a7a4e7)
C         0.98495586957425    1.57893211442933   -0.87804602439786
C         2.47404928646649    1.69528305988439   -0.84688047682896
N         3.25189022105968    2.11502137086420   -1.78276992199041
O         2.94988677040344    1.30426971685859    0.35060523737357
C         4.35222582397823    1.46054554090288    0.62876306088822
C         4.59883367039571    2.13459295074684    1.97888812860762
C         5.84429646565903    1.33770017424840    2.41896300424923
C         5.91645017165239    1.21575145475899    3.88133156636714
N         5.92798801036550    0.95318369539742    5.01298751466708
C         5.80975261549608   -0.03737410347872    1.79589354399684
C         5.05257225516295    0.14073718282596    0.70567314119832
S         4.61584895421988   -1.10903250934657   -0.38212327063128
C         5.35229112732135   -2.50552022237314    0.34416532205351
N         5.00105950604642   -3.68937353433900   -0.01582625405369
C         6.39357299243148   -2.33746877341934    1.37798329037079
C         6.58464300602107   -1.22838549189974    2.11640311357582
C         7.63486363939047   -1.24133120215216    3.19458903021468
H         0.66489999888563    2.57963607236481   -1.17895213887468
H         0.60942385574172    1.35344082556684    0.12384169135022
H         0.47822354013626    0.90062158067025   -1.57033079283545
H         2.81814692320214    2.46879926121424   -2.64250864498483
H         4.76323388789257    2.18679433344745   -0.08270970908586
H         3.74757375769763    1.88781102563164    2.62538990785581
H         4.78702341143341    3.21450286838532    2.03647360480640
H         6.81682895258524    1.75511292264360    2.12777897882460
H         4.24862987641267   -3.91540402730242   -0.67856185775067
H         6.82406590412877   -3.28234080730477    1.69503597176085
H         8.48161950953447   -1.89467544586211    2.95124074609343
H         7.17904750002503   -1.46167907917477    4.16441015514032
H         8.05710717330386   -0.24412665243344    3.35319385723824
