30
 energy: -48.310697706143 gnorm: 0.135290462714 xtb: 6.4.1 (79825abcba525fcdf90b791dcacef51065a7a4e7)
C         0.79112519080244    1.79580493286585    0.00717942343904
C         2.25560139418553    1.90422700121069   -0.26752428506864
N         2.84668030756045    2.89977611778978   -0.83020846212357
O         3.00121623478012    0.95929274668388    0.33616646295903
C         4.41460999095376    1.20280660725010    0.22954687119257
C         4.83365335340657    2.11959503426377    1.37928361205905
C         5.79984610723466    1.30663129564318    2.26553580509696
C         5.35816080354928    1.19920825818870    3.66266631702043
N         4.79031758433396    1.19730916543863    4.67620986482950
C         5.86465535078020   -0.02793211371659    1.56198902887275
C         5.09675845256216   -0.10726733462420    0.46760965900862
S         4.94330344537926   -1.46096433995630   -0.57157669877419
C         5.95978193966484   -2.71350978237648    0.07489167147756
N         6.35784185717772   -3.78827009631901   -0.50897877211705
C         6.39294803765710   -2.40043436530753    1.45171391404131
C         6.46765619496597   -1.23236438685526    2.11644562739186
C         7.21603848271190   -1.13047918937506    3.41842833014676
H         0.30998960687066    2.62109676969616   -0.52366009386314
H         0.66553519747994    1.85435054697246    1.09182183988639
H         0.46507027657836    0.85656926605632   -0.44852397360273
H         2.14447606781729    3.56560428058810   -1.17083256070664
H         4.52074919422015    1.51771859373347   -0.81550014982913
H         3.96251685318323    2.56850995360317    1.87234127309221
H         5.31576056192295    3.02563768388474    0.98993003467814
H         6.79147903946012    1.77396722792395    2.32123267625795
H         5.86404552314113   -3.84610264162298   -1.40857821942219
H         6.80617235970280   -3.26219488382418    1.96673243309847
H         6.56103037515431   -0.68191762366704    4.17528329889987
H         8.07143211984326   -0.45033752898135    3.36759966111007
H         7.46345686806065   -2.15757083977547    3.70431090889845
