30
 energy: -48.304646881988 gnorm: 0.130228591366 xtb: 6.4.1 (79825abcba525fcdf90b791dcacef51065a7a4e7)
C         1.05534291299539    1.69950960522858   -0.63677845684462
C         2.49194701776151    2.02073150232224   -0.38203706883151
N         3.26391179321235    2.74206697425489   -1.11746302932081
O         2.94568188056281    1.30841786674432    0.66678071186940
C         4.33143933998441    1.45988618533956    1.02045052189375
C         4.41429869744364    1.64200587699905    2.53635281954990
C         5.72866620464836    0.90579657121282    2.86849054709990
C         5.42181375385186    0.43170002508508    4.22483618819704
N         4.97796580702315    0.06273104715636    5.23309261840776
C         5.87389799448865   -0.18615960290717    1.83564131135159
C         5.11794265753574    0.20608776239420    0.80205542762737
S         4.67554654093187   -0.66567003931004   -0.60516756865834
C         5.70586890083333   -2.05843131670338   -0.46852211840787
N         5.65505043242905   -2.98685218582030   -1.35729566558892
C         6.67110700643039   -2.14167865530403    0.64623080417846
C         6.61156890053379   -1.44147638333905    1.79427666401619
C         7.58832974107501   -1.74081035223200    2.89969661390678
H         0.62588258620928    2.46344449675150   -1.28973785115405
H         0.55750574641988    1.71860613597952    0.33658842530605
H         1.11026410867298    0.73053914062437   -1.14098172340886
H         2.69685866097107    3.16098834387543   -1.86271355526710
H         4.66690685083187    2.38269713509473    0.53214740261259
H         3.58972204273208    1.06806884919447    2.97701020556019
H         4.41840864558799    2.67067810846195    2.91943693745873
H         6.64884817303175    1.50002493154924    2.93919263670695
H         4.89211180438005   -2.76890410379546   -2.01065765450338
H         7.20437935117880   -3.07859553697219    0.77443793755601
H         8.09871291658413   -0.78089374628599    3.04509848765619
H         8.36921255783918   -2.47878999763006    2.69358347245733
H         7.08860665859567   -1.89497391307263    3.86113951092537
