30
 energy: -48.306971794136 gnorm: 0.141558286371 xtb: 6.4.1 (79825abcba525fcdf90b791dcacef51065a7a4e7)
C         0.96129969616428    1.69168320733950    1.05144118464740
C         2.27181990493177    2.11546048861183    0.47277234947846
N         2.64226928855107    3.23180651552018   -0.05033816532435
O         3.10664172580869    1.05988691179043    0.42671036262898
C         4.48933615964780    1.30155092254042    0.11349595881643
C         5.16216760283216    2.15792449083217    1.18676903991847
C         5.54136240309575    1.11244958416470    2.25591588293546
C         4.53722997471120    0.89006302075529    3.30513539823107
N         3.90512743323822    0.61822508806670    4.24122865114652
C         5.69509143605710   -0.13521152608682    1.41928754335560
C         5.16280124898498   -0.03192028638309    0.19469616689008
S         5.32015674025397   -1.26602765765997   -0.98351034152698
C         6.35016457879662   -2.46793791828640   -0.26621293795184
N         6.93775500406595   -3.39554877217414   -0.93609482494696
C         6.67002242987259   -2.40364936554513    1.17421982484732
C         6.27627338704611   -1.36657845152827    1.93663879136428
C         6.67469985411044   -1.42042118498862    3.38714661252846
H         0.21433485633117    2.23472944175995    0.46703295877735
H         0.90832872145545    1.91734869709818    2.12004717808991
H         0.81616940578357    0.62549322362273    0.85569351966873
H         1.93999884140938    3.97716553330400   -0.11115647342254
H         4.56372784854398    1.73083467908883   -0.89285373373708
H         4.39680807953871    2.74533394426598    1.70896077558945
H         6.03718853812975    2.74617098942697    0.88141469628857
H         6.45860175400033    1.36392039412520    2.80388970214051
H         6.60552539623352   -3.46424938858847   -1.90633309552609
H         7.30900872676563   -3.22754047654800    1.47675835539982
H         7.38769478950583   -0.62287203822136    3.62927493877831
H         6.82875135040148   -2.45329916409249    3.71319220624307
H         5.79518891988851   -1.24291030424220    4.01389406688506
