30
 energy: -48.314401903802 gnorm: 0.123792346426 xtb: 6.4.1 (79825abcba525fcdf90b791dcacef51065a7a4e7)
C         0.89661973378139    1.53837391456461    0.39805005828066
C         2.28636293379798    1.99259215479870    0.09111741437682
N         2.64325882260369    3.03894422914415   -0.56833574314552
O         3.18827081790907    1.11651242744142    0.57312491566213
C         4.58008614842302    1.46860418454553    0.48809477570503
C         5.17858311320888    2.20070692252147    1.68968534916582
C         5.67342522510949    1.02820624347426    2.56161131578048
C         4.53220166001729    0.61642830939168    3.39025299006744
N         3.62155639832446    0.47117741184143    4.09689819861875
C         5.95206527054014   -0.09353131555601    1.58985908283964
C         5.30360411316789    0.15977881526958    0.44576204233559
S         5.06070585517968   -1.01848096347981   -0.77434313816572
C         6.00033085573942   -2.37146155776802   -0.22065700141613
N         6.11180654202516   -3.47065341288942   -0.87930453166247
C         6.70264148319936   -2.30343489421063    1.07681004308796
C         6.67515473016069   -1.29878318842797    1.97221859153748
C         7.45467702171564   -1.40068250461718    3.25579839695307
H         0.24429009571960    2.39262595588445    0.20029224742545
H         0.65945879107690    1.16504744735142    1.39806587900242
H         0.63021337173730    0.74274079084807   -0.30347443391895
H         1.84633113043753    3.58476655732263   -0.91391779173486
H         4.75653976772588    2.00850214486777   -0.44995249532459
H         4.42353003808727    2.78267795640125    2.23256087882937
H         6.02231829648072    2.80362895491779    1.32977866575637
H         6.54321469103968    1.28654381668703    3.17932393434340
H         5.60921228542565   -3.57137934887316   -1.77020962337882
H         7.07546479742104   -3.28770404750901    1.34298031757027
H         7.94338224854927   -0.50842009167646    3.66580756533892
H         8.03894632197155   -2.32126641042458    3.16619277726504
H         6.76911797186403   -1.78567121811774    4.01714880403245
