30
 energy: -48.309700279288 gnorm: 0.138555811709 xtb: 6.4.1 (79825abcba525fcdf90b791dcacef51065a7a4e7)
C         0.91070097344952    2.20387640182064   -0.52229984336999
C         2.38750387507939    2.28166560151497   -0.31037992579600
N         3.07002470171808    3.37188899825327   -0.36218797532704
O         2.95642055958484    1.14806828441651    0.14192050811759
C         4.38678182090309    1.18972430819265    0.28572622683796
C         4.75128653636757    1.90509147449139    1.58702522297442
C         5.88188586743045    1.14100317761496    2.30660543524584
C         5.50608266639351    1.07532084892180    3.72542787081287
N         5.20799315160136    1.05766517539364    4.84817048831836
C         5.71700025585445   -0.22533872788658    1.68518740616288
C         4.94275318242186   -0.16456377362492    0.59409903997561
S         4.71958765698636   -1.49168547047871   -0.46651280155503
C         5.66517159280448   -2.81528425734858    0.14502398941020
N         5.80453958554395   -3.95802942640961   -0.42871477987803
C         6.47729249077579   -2.55568234144492    1.35099043938401
C         6.45173236937138   -1.42115855474196    2.07489617185874
C         7.38240519918203   -1.26225597498480    3.24716477117716
H         0.45345794751133    3.19649051582758   -0.52819004928526
H         0.43492634728986    1.58771416207603    0.24557528047142
H         0.74147299319328    1.81233219878624   -1.52937285884323
H         2.70103441310838    4.13526366853042   -0.93972411481415
H         4.82484678102367    1.64222304749907   -0.61199441348363
H         3.84686810367346    1.98043541046558    2.20335294714259
H         5.07358490194303    2.90754921992257    1.27696217775612
H         6.91291425940325    1.51316714619893    2.24902650464800
H         5.45066073669616   -3.92223232265375   -1.39305233229394
H         7.10992790500952   -3.35908016255913    1.71561899333804
H         7.91162413027789   -0.30981168594572    3.12126898980784
H         8.20363936747672   -1.96687637819753    3.08604667977702
H         6.91281228595062   -1.21723079797515    4.23474625612247
