30
 energy: -48.303913191908 gnorm: 0.131251195580 xtb: 6.4.1 (79825abcba525fcdf90b791dcacef51065a7a4e7)
C         0.85259856365083    1.48317454628619   -0.23545440001505
C         2.32617134349508    1.54124482469905   -0.47445047864561
N         3.00297957342591    1.33504763054229   -1.54986627884506
O         2.99269246487643    1.54448815834360    0.69560243761383
C         4.42580499627396    1.66202319047488    0.66872064608670
C         5.00910850349846    2.26901403139044    1.94516574245014
C         5.93872633904274    1.24023152986306    2.62140438068607
C         5.43637262948344    0.87753141703423    3.95357880547223
N         4.95733869957097    0.44091702068645    4.91774395271916
C         5.86414198903210    0.02835829186006    1.72360803513801
C         5.08871833090982    0.32081775117678    0.67155690793329
S         4.88005790811458   -0.79293605050870   -0.61373124608180
C         5.68894805330551   -2.24837655043123   -0.11632831931398
N         5.56866849509188   -3.25716324691791   -0.90521891493527
C         6.33035561732102   -2.27081149205279    1.21385272225545
C         6.45977422368888   -1.25133323220936    2.08319268087549
C         7.30864512303738   -1.36291279173966    3.32116837316040
H         0.48036643352075    2.18514122016389   -0.98583742824130
H         0.74303899310055    1.80759393526570    0.80300521270253
H         0.40795692942575    0.49296701558477   -0.36933454605007
H         2.57012676797280    1.31298087219092   -2.47970186604381
H         4.75567628110452    2.19257934070102   -0.23253041827138
H         4.10076185787384    2.50472793330852    2.51336870150387
H         5.55571741455112    3.19920328470020    1.74291958426657
H         6.99534479857040    1.53510092132953    2.65948822868547
H         5.18730255310167   -2.94955711606272   -1.80876585690215
H         6.63333544465133   -3.26689577352308    1.52150340116024
H         6.97624273559368   -0.88917100830813    4.25291399977531
H         8.26953862418164   -0.86923820173030    3.14841539386945
H         7.60231499764682   -2.41682145817126    3.29122677844601
