30
 energy: -48.309833917138 gnorm: 0.136058164141 xtb: 6.4.1 (79825abcba525fcdf90b791dcacef51065a7a4e7)
C         0.93651368118911    1.99284893060902    0.06503393893944
C         2.38841916146918    1.93533963261511   -0.28219966845179
N         2.97629031485029    2.35214874486367   -1.34886900684680
O         3.03060497352806    1.35312614179838    0.74829030572362
C         4.45795045644797    1.51592669636582    0.81559186687445
C         4.77108455860885    1.93677072339791    2.25184751214875
C         5.68172248780194    0.86546916669788    2.88661752996194
C         5.05360992660355    0.17435469896587    4.02082858204362
N         4.35664724489718   -0.17460807855218    4.88233195589737
C         5.81899839676008   -0.12938500767987    1.75893924397647
C         5.10280904507255    0.17396297196395    0.66867379429121
S         4.82257184024548   -0.74509225284440   -0.75004285060931
C         5.93731007092384   -2.05441290063461   -0.49892913945051
N         6.19760583748771   -3.00873609539551   -1.32110886017888
C         6.72523258702439   -2.14575045430795    0.74691360539065
C         6.61762514748497   -1.34578925554090    1.82409500560395
C         7.38445084371606   -1.59717899663735    3.09468429897489
H         0.71305842337246    2.78204921769351    0.78726611293140
H         0.67792538302841    1.06587816982253    0.58417448573135
H         0.19529343144431    2.04335250366857   -0.73757615352796
H         2.39921657863334    2.75754661094500   -2.09390671439616
H         4.67023086275847    2.24438805608887    0.02385994060716
H         3.80660438711905    2.17924162215597    2.71498370084818
H         5.30832378378009    2.89401090357638    2.25329933635982
H         6.65847007505751    1.21150670909146    3.24864386268483
H         5.64736813792610   -2.95225832310407   -2.18742711674088
H         7.26391142515836   -3.07571738843618    0.90058930800129
H         8.38591362087221   -1.18105575187278    3.25895932767003
H         7.65437883127284   -2.65596473822826    3.14932992945487
H         6.76127854279632   -1.46556187610223    3.98473776687709
