30
 energy: -48.306785596948 gnorm: 0.133640805255 xtb: 6.4.1 (79825abcba525fcdf90b791dcacef51065a7a4e7)
C         0.99768699779007    1.65749724031274    0.68482449267242
C         2.34365552528528    2.06682861045559    0.18210730347381
N         2.69643035830603    2.99782370263071   -0.63392202330401
O         3.33471914136645    1.30843436390518    0.68798854209909
C         4.68651613277818    1.39676316737896    0.20508941599993
C         5.49653888926497    2.22289524177692    1.20477030448304
C         5.78729888269791    1.18870144816926    2.31192127475707
C         4.78322630698932    0.92028617432076    3.35037725170924
N         3.92007353950648    0.79696587371883    4.11815291394807
C         5.86488348605896   -0.08900759843182    1.51087317456836
C         5.31576343358056    0.04251314585495    0.29646162349694
S         5.00913456897833   -1.27703322385704   -0.75269444001701
C         5.84122229125072   -2.61518133015806   -0.01988501759282
N         6.18443937954678   -3.59853137559910   -0.77466370008630
C         6.42103764667500   -2.46062022099062    1.32963845662431
C         6.40065516715700   -1.32838957150634    2.05728903527215
C         6.90577448722393   -1.37455731035819    3.47444768186695
H         0.66800366053565    0.69873828013150    0.27680634169018
H         0.27726034018746    2.42845013139780    0.39800281122764
H         0.98410850849472    1.50493467463337    1.76772860592482
H         1.87632782065917    3.52332910946686   -0.95597575807528
H         4.70303742526494    1.74736731717010   -0.83383413711188
H         4.88366078329802    3.10821407786521    1.41477091278473
H         6.43569534382910    2.47673905763154    0.69635577970019
H         6.78066082144033    1.38095127699473    2.73749496263273
H         5.72972650639932   -3.69025441698009   -1.69187778206927
H         6.76604032590421   -3.43645182976996    1.65728983857504
H         6.85534671651878   -2.41162559238148    3.82802789287343
H         6.22067276498343   -0.64033903116061    3.90853715153609
H         7.89880636982404   -0.91508137591795    3.49957758917442
