30
 energy: -48.301273400276 gnorm: 0.128671635400 xtb: 6.4.1 (79825abcba525fcdf90b791dcacef51065a7a4e7)
C         0.83544317944330    1.71973877793530   -0.40204686242136
C         2.28046011130799    2.03583071590907   -0.19247593146675
N         2.92165428617458    3.14313397711677   -0.33338485833779
O         3.00503371751478    0.94940893897339    0.13610520965494
C         4.41858728190541    1.20052738632315    0.22068944340014
C         4.83575982005786    2.08077200399492    1.39930279340155
C         5.71784183416892    1.23344709312490    2.33943749179870
C         5.12388881338011    1.01493400956385    3.66536024114968
N         4.66356123801702    0.70301362298031    4.68542114732633
C         5.95308790257912   -0.04337020425541    1.56831188949986
C         5.10513234963485   -0.09157693851656    0.53280552478852
S         4.62789789299260   -1.42685499378519   -0.42908434234935
C         5.85142891008659   -2.54171289575384    0.10014499608596
N         6.11608173257987   -3.66351274044590   -0.47081046389385
C         6.60145985872318   -2.33328423197050    1.35525441881012
C         6.74091814520697   -1.17769148121265    2.03126761125103
C         7.51435338525119   -1.10577808830220    3.32054725449047
H         0.27226279616624    2.65204821003167   -0.49157695548089
H         0.63922263977659    1.09769409680220    0.47556781470058
H         0.58477350038122    1.16163195786304   -1.30859113591528
H         2.51628366435112    4.07784321143895   -0.45353484202048
H         4.83341354126065    1.67623642268005   -0.67607053534774
H         3.91417936257230    2.42188847405005    1.88698945858103
H         5.50882900197612    2.86334421978518    1.02581188294146
H         6.69649571969616    1.67315871830478    2.57123731558712
H         5.67183794495544   -3.82726504939767   -1.38311042871157
H         7.12123925253339   -3.22831313806816    1.68294672857837
H         7.15653832623609   -0.44665304295493    4.12091910294277
H         8.45267468292542   -0.60572587355508    3.06291294489451
H         7.53094313899514   -2.14946162050987    3.64965427637776
