30
 energy: -48.304268506594 gnorm: 0.123458408556 xtb: 6.4.1 (79825abcba525fcdf90b791dcacef51065a7a4e7)
C         0.88975164077278    1.64329580633732    0.50725244677162
C         2.32385983627471    2.06183517989546    0.51540701143059
N         2.78679524069977    3.26229769728895    0.55647235880338
O         3.17239266107770    1.04849056884880    0.25770660940848
C         4.58558820172582    1.26271554599088    0.09853790765181
C         5.08793756698464    2.10724736112218    1.27003441835989
C         5.59176911341101    1.08465279841099    2.30942634759846
C         4.53503393262963    0.92570377355476    3.31771463795595
N         3.71714814417467    0.93320104491563    4.14277626705896
C         5.78320539992111   -0.17694494466217    1.50198525500557
C         5.22306842661717   -0.07721582222743    0.28957994936564
S         5.08760727245947   -1.28292411425321   -0.92032505562724
C         6.22726372993110   -2.43250865076388   -0.28813952940215
N         6.51345929129768   -3.58898467156367   -0.77303277755743
C         6.73919304887181   -2.30330270286224    1.09118015739837
C         6.47052744499899   -1.35661936864313    2.00957360397604
C         7.01738126104421   -1.34266539525835    3.41184740206566
H         0.28712316956245    2.55237236029113    0.43791700620826
H         0.51747583187586    0.97696480263033    1.29023604904754
H         0.74106210759218    1.13964326138008   -0.45210492536513
H         2.13428749134998    4.05391967914060    0.55978708534349
H         4.79810278432048    1.66735712445862   -0.89828761237103
H         4.33820985410094    2.79572152951048    1.67920546679836
H         5.91739008304871    2.79447710126399    1.05870371780448
H         6.53255365861816    1.31355205973006    2.82650513182373
H         6.17656487668649   -3.82240743007191   -1.71562206055136
H         7.32636831560190   -3.20778116473937    1.21677288453228
H         6.50186570576514   -0.62013906477896    4.05626338327341
H         8.09097845827064   -1.13381832138250    3.38642163310700
H         7.08965468632148   -2.38928658228441    3.72365280411885
