30
 energy: -48.308645835489 gnorm: 0.132956155422 xtb: 6.4.1 (79825abcba525fcdf90b791dcacef51065a7a4e7)
C         0.98734851374160    1.97005718146092    0.38389450931682
C         2.35895430450959    1.58784207958150   -0.06834128030031
N         2.72851557241001    0.90091932341489   -1.09238591731610
O         3.33585521207567    1.83268835325301    0.82552655158681
C         4.70939282059064    1.64468218930557    0.44290813517628
C         5.65387969114214    2.27031782995706    1.46980522791319
C         6.05397745251655    1.15390772554167    2.45643171744706
C         5.16087339071963    1.09009977494182    3.62128927941314
N         4.41555824731665    1.00798651360165    4.50869160380938
C         5.81228640218811   -0.11162757594536    1.66887603685259
C         5.06438495896916    0.20010772369719    0.60253143227002
S         4.79141146787788   -0.90100040549744   -0.68160210336010
C         5.70228430644133   -2.31003719288527   -0.22889231508403
N         5.92023606245035   -3.30277203820229   -1.01720749588091
C         6.35193137348877   -2.36331792736038    1.09640338193078
C         6.39169468530082   -1.39744845389243    2.03307428117861
C         6.76264114036290   -1.65990972846083    3.46804071294469
H         0.63619017312089    2.81195336255609   -0.21800855764561
H         0.95005482431518    2.27283268281154    1.43393535931789
H         0.26832481471055    1.17080621997198    0.18303671189244
H         2.00770325051263    0.91264020440609   -1.82227284897673
H         4.90590693145067    2.00978329645837   -0.57229717827035
H         5.20110326029754    3.14320354727966    1.95619328245590
H         6.48786840077587    2.71217129895086    0.90930077713730
H         7.02642712440283    1.47635664007790    2.85039786848533
H         5.52730165236175   -3.19078495294066   -1.96035120377811
H         6.96820438229274   -3.22359675577454    1.33880312960180
H         5.98651341433762   -2.36030775969207    3.79991559387398
H         6.67446051421694   -0.76082735044985    4.08508982953572
H         7.76121801947300   -2.08448314800836    3.61102197494068
