30
 energy: -48.309693608713 gnorm: 0.133876363243 xtb: 6.4.1 (79825abcba525fcdf90b791dcacef51065a7a4e7)
C         1.12003612395933    1.35959955263015   -1.00570222035731
C         2.55107981820714    1.74230875669648   -0.81190942472376
N         3.37330973981441    2.23833171114460   -1.66923375461360
O         2.95184496631951    1.51571013632504    0.45352533902624
C         4.37029621999058    1.45215772650654    0.68223008599254
C         4.63959514718770    2.07131921979635    2.05413028947520
C         5.90313770372988    1.29108180450727    2.47194766092767
C         6.01511363285630    1.39112638198711    3.93347150903853
N         6.22374459680639    1.33352082077109    5.07490695085768
C         5.72474748815201   -0.09672076923933    1.90412807823345
C         4.86869984254002    0.05626012542575    0.88559700592428
S         4.28708294166878   -1.14910714310670   -0.18433948695503
C         5.35530390638892   -2.46831337368523    0.18797627465793
N         5.25832707953362   -3.56808683342127   -0.47199348748667
C         6.29722301133363   -2.42071248453739    1.32455507708648
C         6.49823360197022   -1.31950639693605    2.07206911208769
C         7.53592044223413   -1.27611872829390    3.16153658915897
H         0.77373922861620    1.77833692313376   -1.95392484007793
H         0.44162847555871    1.66780699125107   -0.20543923406433
H         0.98659678491769    0.27445840772587   -1.03405133324863
H         2.95196535870619    2.33675598866908   -2.59940808750767
H         4.88407660156783    1.93358751628184   -0.15849193340568
H         3.65939249512135    1.93009497280765    2.52611311029158
H         4.73059731181629    3.16397151080516    2.00153300714384
H         6.83629051818088    1.79396527285187    2.18703532977270
H         4.52188593557142   -3.56833782534132   -1.18901021474519
H         6.87148920330606   -3.33711170376209    1.41974192124037
H         8.24394889785976   -2.11128732342889    3.22681844141068
H         7.07906420244937   -1.38136547943894    4.15001018658027
H         8.11876642025291   -0.35108394108262    3.11190574834234
