30
 energy: -48.315521815736 gnorm: 0.118050953917 xtb: 6.4.1 (79825abcba525fcdf90b791dcacef51065a7a4e7)
C         0.96528095396414    2.10250926573051   -0.47566136282941
C         2.45688549228936    2.01999845643481   -0.46096823718163
N         3.34222312522102    2.51683778276707   -1.25244392537440
O         2.77517316721869    1.43909438184619    0.71143449330804
C         4.17813784676823    1.37008949014224    1.02010432661400
C         4.48404424166943    1.69640310060423    2.48227177291345
C         5.58426207463887    0.72146523899120    2.95013748445699
C         5.28759149642229    0.14680234205431    4.26936013855570
N         5.11361141819066   -0.17776592388733    5.37122511499299
C         5.68895894515408   -0.25051578025723    1.79925552440007
C         4.90701815871470    0.08847286312936    0.76616247445298
S         4.75463856650435   -0.74809871478751   -0.72141299601473
C         5.80155398921576   -2.10499195970968   -0.43361305352813
N         5.87532016013527   -3.06637445876754   -1.28494635533029
C         6.68277942370677   -2.20591001787998    0.74729586737578
C         6.70101509514889   -1.29638822579694    1.73940202849015
C         7.64086925304207   -1.42363152700632    2.90820437532717
H         0.47711950522900    1.98189017278160   -1.44599022076417
H         0.62780914302041    3.07740862495653   -0.11326155262928
H         0.54184707270383    1.36234194283854    0.20917227595038
H         2.88801588815603    2.98192364331156   -2.04606451537280
H         4.66197580435359    2.08500301193369    0.34382194579558
H         3.61762747026974    1.37129791319437    3.07145584306267
H         4.65781630267519    2.75602835869804    2.71016304853072
H         6.58666752225052    1.16336838903332    3.01902744003739
H         5.40338747852601   -2.98786844428550   -2.19465781292395
H         7.47312463900609   -2.94216484213713    0.63814970046044
H         8.08676238586086   -0.45653324464365    3.17083105353912
H         8.45841289596692   -2.12473447699921    2.71597650234249
H         6.91750485323322   -1.72931637533190    3.67054464942695
