30
 energy: -48.308497753823 gnorm: 0.141534567734 xtb: 6.4.1 (79825abcba525fcdf90b791dcacef51065a7a4e7)
C         0.81168713333239    1.76669126149306    0.72457615040770
C         2.22866852386531    2.05887737696342    0.35215296006148
N         2.59697149215403    3.08985787095629   -0.32500134407555
O         3.14667558126360    1.10690115525485    0.60570585077888
C         4.54300295706386    1.32166743816357    0.33645883453948
C         5.21519946048679    2.10394370362094    1.46525848600943
C         5.61942747021040    1.02808066450673    2.49433569082580
C         4.40255715123144    0.81966266847993    3.29082040068352
N         3.52111084026743    0.74357699673092    4.04380343050810
C         5.74739343069703   -0.19671617368197    1.62041621247196
C         5.16501630964338   -0.03609825786396    0.42514857401535
S         5.22185976299193   -1.13977190343104   -0.88428856925469
C         6.17479422066230   -2.47948353058698   -0.32116456158879
N         6.64647340081244   -3.48370505695728   -0.97195178441805
C         6.66484773973842   -2.37970477167878    1.06850458381208
C         6.54585678992031   -1.36951593331067    1.95009219541994
C         7.16160582958057   -1.44235398051780    3.32164728054408
H         0.06927654041552    2.44109374498528    0.29052954002138
H         0.56975893934814    1.79379324860834    1.79059014522397
H         0.65493985208467    0.74998480292564    0.35325513354374
H         1.84626783225142    3.75764045432329   -0.53225275942808
H         4.63511602183294    1.86013453713128   -0.61439695653862
H         4.66334287705778    2.97095850193597    1.84898875784483
H         6.10924186139822    2.57319925832895    1.03464930264580
H         6.43149481366269    1.23612436578252    3.20292961220443
H         6.45171204728525   -3.57038912882539   -1.97744294308356
H         7.38730271849507   -3.14584494893424    1.33254557730161
H         8.17258072002242   -1.01691075063858    3.32103506925200
H         7.49373781330574   -2.47114092591510    3.48945752226307
H         6.46301296306877   -0.93609332385575    3.99509373038800
