30
 energy: -48.315432323456 gnorm: 0.128582975522 xtb: 6.4.1 (79825abcba525fcdf90b791dcacef51065a7a4e7)
C         1.05120846672949    1.68928306293156   -0.91359569129556
C         2.31858976986594    2.15205518804114   -0.27211723004698
N         2.79428818573645    3.33488251031774   -0.09397023502615
O         3.00084433718815    1.07820702954713    0.16908974474849
C         4.32534951870957    1.36979336786613    0.64764181769164
C         4.40841996842543    1.84646024782909    2.09811792354798
C         5.63176500822485    1.06421302510557    2.61907631366555
C         5.33851937711589    0.56939335731101    3.97102298737664
N         5.12192583448395    0.17273969227805    5.04129079104208
C         5.82572033870453   -0.07564734769363    1.64782068456266
C         5.01121360760323    0.04137492190682    0.59117006321275
S         4.70764999370780   -1.17784329582431   -0.57386573283675
C         5.76018640229067   -2.46580704498091   -0.07054031371872
N         5.84551397977143   -3.59970616535726   -0.67175419902762
C         6.70251822696757   -2.24725156673156    1.04549411104696
C         6.79993459236599   -1.14582539210604    1.81309263967976
C         7.69887543900683   -1.15798894563968    3.02030969709470
H         0.21932127852084    2.35441616174350   -0.66874813441955
H         0.83558040730728    0.67152220945708   -0.57696979786727
H         1.28945053949004    1.60227568849588   -1.97746197175237
H         2.27594851574244    4.06911737364472   -0.58860733957229
H         4.68592771185684    2.11507773077224   -0.07144994257849
H         3.54465994465415    1.54560682945449    2.70385310910850
H         4.51357540675552    2.93865052463832    2.06650164740011
H         6.49715255073029    1.72568407758998    2.75472787802801
H         5.30738687517673   -3.64260093881829   -1.54641861851363
H         7.38983384583446   -3.08382507707848    1.12531652674688
H         8.29205003875811   -0.24367117116797    3.14375784258859
H         8.45798295730222   -1.90090113463175    2.75818039450090
H         7.07413027970063   -1.27795542861686    3.91090696697586
