30
 energy: -48.303482450483 gnorm: 0.128585184831 xtb: 6.4.1 (79825abcba525fcdf90b791dcacef51065a7a4e7)
C         0.90178534375344    1.93507525470416   -0.58455100905430
C         2.36501583513623    1.63367485794534   -0.58927856847772
N         3.02487838594272    1.59066203315136   -1.69374093433000
O         3.02645187637353    1.48590691242488    0.57431575480467
C         4.46325538267616    1.47526150971318    0.51242064460498
C         4.86976608583594    2.11902153564483    1.83843536006607
C         5.95212589414912    1.25002902341521    2.51165947335307
C         5.57855102200029    0.99366357379855    3.90927096591073
N         5.44408892984249    1.10248520172499    5.05809552398362
C         5.89089348570930   -0.03591545302912    1.72246037034604
C         5.14064426478040    0.14633431244228    0.62813999774297
S         4.69260187761224   -1.08050747291701   -0.48094502417455
C         5.44300131117199   -2.47900070793097    0.22696552621446
N         5.26218537856681   -3.66023044931367   -0.24892106005982
C         6.48488483598290   -2.37522739160257    1.26859810066987
C         6.57438756045227   -1.28062392107195    2.04684585111257
C         7.50600563122468   -1.19872234155253    3.22625058098754
H         0.55118986355750    1.45614999006210   -1.50221219873353
H         0.71595785331097    3.00985658087935   -0.66177050694448
H         0.51283743273349    1.53979724611573    0.35811322015198
H         2.41854270827839    1.74868179673338   -2.50603984061507
H         4.72838572863639    1.82852249648022   -0.49130787828014
H         3.95475296930927    2.08363544852611    2.44259435922363
H         5.03711143545624    3.19909934072292    1.73663003933675
H         6.92043312348027    1.76449050556620    2.46114820097537
H         4.56344971073039   -3.80855233893162   -0.98799322860378
H         7.00715490190122   -3.30647006973946    1.46519581441301
H         8.07760944128953   -2.09227257431656    3.50537350166020
H         6.88217431375594   -1.13825624027552    4.12294052251752
H         8.24382031316217   -0.39033454773133    3.22704335887657
