30
 energy: -48.308341851099 gnorm: 0.129463853570 xtb: 6.4.1 (79825abcba525fcdf90b791dcacef51065a7a4e7)
C         0.83157559382348    1.62219533892781    0.16417430338600
C         2.23928790467002    1.87906513143728   -0.26509484061766
N         2.61275289519228    2.80521322318637   -1.07742447613972
O         3.09953839463969    1.10477833996468    0.42318841671189
C         4.52179285625503    1.24972714180529    0.26656522003429
C         5.09886457133533    2.22077464694311    1.29712236518749
C         5.87852731720390    1.32650707298211    2.28317159321710
C         5.13128627627513    1.27238394253723    3.54701532941197
N         4.38080355543868    1.29285404344764    4.43362505416057
C         5.95005797759296   -0.01840935708723    1.60029438278942
C         5.19578190073023   -0.06632750039051    0.49467341398070
S         4.96485354518642   -1.42734364754992   -0.52034369037879
C         6.03526463338323   -2.66369552340457    0.06759701883185
N         6.09876502988294   -3.78572387390371   -0.55809167783587
C         6.54964274701261   -2.35451052859776    1.41708159580431
C         6.50399150224913   -1.23938108018635    2.16957053942041
C         7.14291057536420   -1.22945762049478    3.53239840518442
H         0.20836899540862    2.48462564075198   -0.08525739490541
H         0.84480571351102    1.45090046325202    1.24405051803141
H         0.61795942454218    0.62981918332665   -0.24288678735605
H         1.75738537665318    3.18123908971884   -1.50097337688891
H         4.50713670330932    1.66076441714816   -0.74999368206073
H         4.36134562044783    2.87900357404741    1.77284265165811
H         5.81181431490678    2.87793289902091    0.78255207019537
H         6.85474455951960    1.78123392748562    2.49545531166238
H         5.53469834200156   -3.79514376936202   -1.41727655101162
H         7.08208084034537   -3.19099295784657    1.85916364575729
H         6.64265674159979   -0.52638347945121    4.20952870841030
H         8.16632093313193   -0.94212779615349    3.27365653043956
H         7.26056739880014   -2.21730461806563    3.98866279367506
