30
 energy: -48.307310309953 gnorm: 0.126454537477 xtb: 6.4.1 (79825abcba525fcdf90b791dcacef51065a7a4e7)
C         1.06810148221868    1.93017215128717   -0.00214181468888
C         2.52523972740326    2.19957213279527   -0.19208866232028
N         2.99737936878037    3.23494608443679   -0.79391151411556
O         3.24456610760875    1.24441368380175    0.42720662031505
C         4.66961017067658    1.42880837628108    0.48717877051976
C         5.34372701227217    2.07086661214256    1.70015883785332
C         6.02254308376022    0.97490043484026    2.54747714426393
C         5.32643205665288    0.91781012248576    3.84005960694697
N         4.66357010234359    0.88651260149168    4.79366043949664
C         5.85904534196533   -0.26751123456170    1.70490991506276
C         5.27925452094676    0.06374406304326    0.54398852924183
S         4.80148886510250   -0.99110534613651   -0.71893863726058
C         5.41403747626648   -2.51976480034040   -0.16395715684550
N         5.26296633683206   -3.60269181867706   -0.84138812461698
C         6.08569277228229   -2.58294269471177    1.14988312694851
C         6.34060313754404   -1.60186248591765    2.03551248993019
C         7.28316525493921   -1.81283728034976    3.18993091055187
H         0.58368561002725    2.10825029021694   -0.96547877434712
H         0.73530101137092    2.60267194860088    0.79324329693854
H         0.85984608230146    0.91719004109299    0.35372046647044
H         2.30608412292466    3.83103220018447   -1.26213682111755
H         4.94917876421475    2.04204559883423   -0.37788763129495
H         4.54580236005739    2.47876824244920    2.33296353216772
H         6.06240172438023    2.83757879223074    1.38299020240589
H         7.05811370746565    1.13646793577129    2.87356044459551
H         4.60902291315698   -3.63756961252215   -1.63360029394455
H         6.50847800665127   -3.56688816870068    1.32802227173034
H         8.30512792456244   -1.54880629411405    2.89168188137731
H         7.06500422662788   -2.87097187523959    3.36206882782008
H         6.96523854900270   -1.23755933151085    4.06505367446622
