30
 energy: -48.308546507687 gnorm: 0.131489531538 xtb: 6.4.1 (79825abcba525fcdf90b791dcacef51065a7a4e7)
C         0.81271653292208    1.68080139404464    0.32933556609272
C         2.23041746274228    1.88332757481849   -0.09612328782215
N         2.49975406200359    2.52851292254485   -1.17700231301646
O         3.18627941325885    1.27715047800096    0.63337106149206
C         4.57783257217506    1.35988448618075    0.27969956125345
C         5.33123556270918    2.20651236833555    1.30614883273947
C         5.86054103302948    1.21468326356221    2.36255415384724
C         4.78553695390255    1.05422199217755    3.35109738927630
N         4.01508770698871    0.92620670366303    4.21117884516669
C         5.94732713962848   -0.07349990084210    1.57942572189077
C         5.19673311215272    0.01167022707427    0.47354119363279
S         4.99074726692953   -1.28128167084183   -0.63180831640968
C         6.02738577001051   -2.51324567754184    0.02215290276462
N         6.08645246161533   -3.67650235687180   -0.52356787034576
C         6.57792105097894   -2.39261865851345    1.38730806288845
C         6.56788336149336   -1.27048039601485    2.13063976432504
C         7.25649983199892   -1.20779996612017    3.46761176220776
H         0.69578905491609    0.66234558553064    0.70810249814477
H         0.06427226908104    1.97054491076526   -0.41331474439124
H         0.59513516492047    2.33757211538991    1.17636071187930
H         1.68630014167930    3.05049580551176   -1.52090535424893
H         4.82395498104680    1.76070685732103   -0.71091820140348
H         4.70059484436607    2.91634972756379    1.85563266522529
H         6.19935272861336    2.69691051605845    0.84699842085044
H         6.75670203656059    1.60425371552093    2.86252536650095
H         5.60181953930293   -3.83277791822999   -1.41641022148927
H         7.14393801157937   -3.17900758212659    1.87704969903341
H         6.93670460904706   -0.41160165850861    4.15089194504408
H         8.30786618604767   -1.00686281258091    3.24149771404642
H         7.02296397753075   -2.14898386832786    3.97505223249860
