30
 energy: -48.308204679243 gnorm: 0.128032825762 xtb: 6.4.1 (79825abcba525fcdf90b791dcacef51065a7a4e7)
C         0.91027787333192    1.41270459002434    0.11073881535047
C         2.32865933342221    1.64558000814654   -0.29653395986236
N         2.72061336506242    1.66608999247269   -1.52252629342596
O         3.23449388513765    1.67751829536095    0.69932169984524
C         4.64242052537621    1.53498103338162    0.44285642435602
C         5.33194846021592    2.34343777739761    1.54237539529955
C         6.06344266123714    1.31296624504179    2.42720657419779
C         5.28376640626346    1.16791360886458    3.66400248140195
N         4.50857025074184    1.05749852226313    4.52225626566115
C         5.80143681144692   -0.01362158735189    1.75507878669292
C         5.14193744377748    0.13338490617864    0.59875878297161
S         4.82220481124581   -1.04519450994929   -0.60318721709797
C         5.72556190533297   -2.41683181888388   -0.03522842574684
N         5.81394971803239   -3.50966062310736   -0.70781972671816
C         6.43688000647508   -2.24820317889504    1.24807970491418
C         6.36574531241102   -1.28542610958746    2.18607623411976
C         7.13524424776334   -1.38417760902467    3.47593489784488
H         0.51252844934887    0.67036119409506   -0.58575981372287
H         0.24948949679273    2.28390630040607    0.11472776104556
H         0.90202851679401    1.02904063744116    1.13488477851099
H         2.04491646595462    1.39146177858254   -2.24395249274401
H         4.70420076592829    1.97480618343151   -0.55978782230187
H         4.59295777842718    2.86661718748470    2.16179882468777
H         5.97787608034670    3.17534151758542    1.23310112854538
H         7.09983755116798    1.62360919414867    2.61221355351290
H         5.29314757046995   -3.48737939017672   -1.59366806514989
H         6.86051842812006   -3.19615085106285    1.56518443436844
H         6.49887032991793   -1.43856912174872    4.36764246871410
H         7.68328316411809   -0.44496141079456    3.59593835880982
H         7.74092126901884   -2.29453468703094    3.52355154866412
