30
 energy: -48.304727059123 gnorm: 0.126780921243 xtb: 6.4.1 (79825abcba525fcdf90b791dcacef51065a7a4e7)
C         1.04916771051011    1.10983848467126    0.45566079321121
C         2.42925442607302    1.57145819281529    0.11776150808261
N         2.88048255141009    1.95633785553119   -1.02476491790327
O         3.25445857258748    1.46162764652212    1.17618492353317
C         4.61406751437117    1.71882271745304    0.78418635352406
C         5.41906807473265    2.25488761325740    1.96850112573536
C         5.78637933814222    0.97394013978321    2.74576392750809
C         4.70316695481523    0.74956590805758    3.71266953760300
N         3.98706912338545    0.32769636622736    4.52442692456064
C         5.79429555974122   -0.10607358848605    1.69042250223708
C         5.24140767149254    0.37751583445597    0.57056438134478
S         5.25844133848566   -0.35172770245069   -0.97987621887608
C         5.92890629785849   -1.90044764083224   -0.56519167282994
N         5.99004068652159   -2.87490381961402   -1.40254696521251
C         6.42780230414927   -2.22467268823490    0.78657365034207
C         6.29785428209005   -1.45882034940407    1.88585558266508
C         6.68435619782482   -1.84986622017996    3.28703901618757
H         0.93157700812523    1.27826167860886    1.52906412551898
H         0.99687339722488    0.03279775203663    0.27428226018861
H         0.24267892577030    1.57883746937813   -0.11509031140470
H         2.28559329618632    1.91181814139418   -1.85937110182759
H         4.54068813039781    2.31457586383281   -0.13355654517668
H         4.80755198996937    2.91361244719689    2.59749949331959
H         6.34511321251663    2.72105884892465    1.60786052620191
H         6.68939203608401    0.88719269909339    3.36373144612099
H         5.68071192745178   -2.79073423787881   -2.37911738512358
H         6.89829312156083   -3.20259163720589    0.75587298162042
H         7.60652723597686   -1.26337551897070    3.38032238662105
H         6.77008020647393   -2.93700618653225    3.19955983544021
H         5.81529464228021   -1.70754437071869    3.93691475108912
