30
 energy: -48.305788296044 gnorm: 0.129442204017 xtb: 6.4.1 (79825abcba525fcdf90b791dcacef51065a7a4e7)
C         0.96898783129043    1.29197440213594   -0.52264015048943
C         2.32811322510030    1.90015217930444   -0.40096034119713
N         2.79713192700808    2.70007595902442   -1.29384846964228
O         3.01824463246678    1.44150968832372    0.66047757858365
C         4.44729306650332    1.41000547892964    0.50180590315249
C         5.12278909288240    2.25388215525180    1.58327259887541
C         5.89916800758539    1.26515180479423    2.47743674733975
C         5.18456084743522    1.01410419974806    3.73636924577333
N         4.63776970557946    1.08436206049626    4.75901451824196
C         5.81711351998451   -0.06324437391320    1.76408655730123
C         5.02666194553977    0.04330486717070    0.68823363162610
S         4.71558970648515   -1.21629115429668   -0.43096440863932
C         5.59930269533357   -2.57053055105388    0.20551575549495
N         5.71266013036722   -3.67246156590867   -0.44821528823232
C         6.50111701502847   -2.34785599113091    1.35374725356670
C         6.58373372793425   -1.24795452892509    2.12525766460459
C         7.60263931429225   -1.24914743960235    3.23315910137941
H         0.25113153418440    1.78811903118622   -1.18060025717670
H         0.56500450787123    1.34703007859150    0.49196122630605
H         1.22769985387037    0.23981795951002   -0.67155603442081
H         2.11035468358066    2.91266229164527   -2.02568641743253
H         4.53181785953616    1.75434408037792   -0.53590545260889
H         4.41072259855471    2.85801095532402    2.15903207191850
H         5.78859712538236    2.98319891386967    1.10396728348313
H         6.94736496831005    1.55057008731797    2.63447316933217
H         5.04709813840540   -3.64032814484215   -1.23080922435218
H         7.13890040837817   -3.22140926423035    1.44737756831171
H         7.44288944431423   -0.52327161423787    4.03979210675627
H         8.52469468289070   -1.02629718959979    2.68815801982706
H         7.78599055300189   -2.18808320586449    3.76480175213201
