30
 energy: -48.305265282898 gnorm: 0.121392928162 xtb: 6.4.1 (79825abcba525fcdf90b791dcacef51065a7a4e7)
C         0.89003204150516    1.92726723451466    0.04387918608224
C         2.37274541677438    1.75181872041666   -0.00795618215664
N         3.06875674004405    1.90798139117796   -1.07953785457916
O         3.06317845249138    1.57749996918910    1.13493487938393
C         4.49623845446280    1.62202445613053    1.02221692345647
C         5.14923723702403    2.06033423477975    2.33350262066405
C         5.70062273164327    0.75352985036708    2.94022983035890
C         4.82037081703450    0.03699394091823    3.87314585968506
N         4.05872779210086   -0.72122328185289    4.31442432140872
C         5.81503897115708   -0.14153349539621    1.72944139608758
C         5.08539263895921    0.28719068744918    0.69144424567184
S         4.90307993560861   -0.55263301380997   -0.79092238054990
C         5.91618835814768   -1.94733195020467   -0.57081707147050
N         5.99118980765927   -2.75417422841569   -1.56973978521196
C         6.46562325006572   -2.24067751950690    0.76834629255932
C         6.57205586178673   -1.38390583046406    1.80103777976645
C         7.44011190660782   -1.53267495496339    3.02167790078746
H         0.66773769181135    2.97098031005178   -0.19199556903166
H         0.49133928970067    1.66675184481621    1.02816848886004
H         0.41593335509303    1.33589911080021   -0.74457196139861
H         2.47457000462160    1.98362027086243   -1.91240254882085
H         4.68285558375778    2.29115491682137    0.17369060266253
H         4.42690772306404    2.65907500168186    2.90206122041546
H         5.96705105818579    2.77972750599486    2.19715464210624
H         6.66941615080005    0.99621531635063    3.39562423339822
H         5.42759875792309   -2.43824485291509   -2.36912227685395
H         6.99522253746113   -3.16795404694360    0.96408223300231
H         8.23265959938031   -0.80146284730362    3.22235078861773
H         8.01579213643932   -2.45636528493841    3.13241637224067
H         6.79807787897171   -1.44651937772816    3.90385222159547
