30
 energy: -48.312301818918 gnorm: 0.128214139997 xtb: 6.4.1 (79825abcba525fcdf90b791dcacef51065a7a4e7)
C         0.96025260894129    1.32553543349630    0.00164456426132
C         2.38603161267911    1.67842770155227   -0.27135601642581
N         2.85600145465443    2.27717195603585   -1.30949834151401
O         3.17673705409747    1.56571271594310    0.81278650993288
C         4.59612980551892    1.62400575835008    0.58856592530341
C         5.36064907796731    2.30202540475384    1.72601600436824
C         5.83971438884120    1.11830469716953    2.59156974974467
C         4.96086369114894    0.83568463472728    3.73452505018332
N         4.20253153245841    0.51456210671194    4.55399609824288
C         5.93447461640958   -0.08068416716612    1.67850660263474
C         5.18447189851748    0.24878861513031    0.61899261870895
S         4.87397826397265   -0.84576859483414   -0.66221415029428
C         5.54208958110657   -2.32545108654063   -0.04238585162748
N         5.53476643225961   -3.43806924063700   -0.68774889622925
C         6.31365056842582   -2.39168252517006    1.21522928916689
C         6.58975893817286   -1.33923384745302    2.00766431212895
C         7.52823497528028   -1.45144201209012    3.17911123890391
H         0.45677650067991    0.89046877352672   -0.86531418428095
H         0.56547330344882    2.32203216154470    0.21796187719978
H         0.93726804086107    0.77002417124367    0.94346194610886
H         2.12542365999106    2.35951018808343   -2.02498364310813
H         4.75121586631726    2.11837777809400   -0.37792414647692
H         4.63711664188705    2.98094176408336    2.19407871433951
H         6.14735327610854    2.90220736479449    1.25081603124400
H         6.77540601980869    1.40510180353135    3.08863069169698
H         4.96665768693923   -3.38140736459821   -1.54244211111184
H         6.77023687070045   -3.37370051899344    1.29138258254423
H         7.14597409960773   -2.15499397929371    3.92875371576606
H         7.68670451955483   -0.54469577254201    3.77035841238040
H         8.49905429158235   -1.80400799072901    2.81707658099168
