30
 energy: -48.310857059084 gnorm: 0.130432420055 xtb: 6.4.1 (79825abcba525fcdf90b791dcacef51065a7a4e7)
C         0.98207026355895    2.06184614340499   -0.74484925367591
C         2.41049527403875    2.26899099075450   -0.35936122070465
N         3.12768820034685    3.29069343879330   -0.67378803395228
O         2.85916082315507    1.17297480395153    0.28152293137125
C         4.28041754362788    1.20839720752222    0.49860177907082
C         4.75304496167733    1.98905587585967    1.72546293900425
C         5.79818962339641    1.13123933855380    2.46823131810455
C         5.52571895080745    0.99253159368671    3.90528357540583
N         5.18642046209745    1.00010337897228    5.01638179829466
C         5.77825657221753   -0.15948378961739    1.68473000347580
C         4.91034840465194   -0.13837811656451    0.66496732665030
S         4.63261218443260   -1.42498291085404   -0.43205729673175
C         5.64276865075016   -2.73669269397609    0.09616740999192
N         5.74123703691619   -3.88367640240491   -0.47759080297828
C         6.40626449590681   -2.46865140877802    1.33169019699539
C         6.52653392370873   -1.34874383430795    2.06869722099614
C         7.66314041673897   -1.25589485268623    3.05110262008604
H         0.23914181217376    2.57456929970555   -0.12876408123338
H         0.72616495004966    1.00130746338717   -0.67123006218207
H         0.88270630572299    2.31485762808740   -1.80421369677536
H         2.65598589368115    3.96999864789479   -1.28081692903651
H         4.75915075171747    1.76290628703707   -0.31742062801613
H         3.86278736321089    2.09965776793493    2.35690407072650
H         5.22174092761936    2.96784374781184    1.56043189221874
H         6.82793377325198    1.46424473695169    2.28499568726345
H         5.25872802538416   -4.00058064675907   -1.37757804570187
H         6.98819501015550   -3.33207412299778    1.63907873045893
H         8.65970003980046   -1.27940962985835    2.59351271939372
H         7.48812367892268   -2.11262192688484    3.70856925751140
H         7.53839707397872   -0.41552501056688    3.74108783021136
