30
 energy: -48.308113655696 gnorm: 0.132776492742 xtb: 6.4.1 (79825abcba525fcdf90b791dcacef51065a7a4e7)
C         0.88245036650264    1.63859679105329    0.37064312670954
C         2.32015486651979    2.01307819968592    0.21355248213175
N         2.70439433704526    3.12697405624359   -0.30481212019032
O         3.16064819100978    1.16822065026583    0.84050658956232
C         4.49178680200409    1.35757186793190    0.33005112964840
C         5.22306216019040    2.16797591140955    1.40078666762185
C         5.67226922668915    1.07385658162836    2.39123977380668
C         4.69521625741518    1.00594035744875    3.48639008032831
N         4.00065483489372    0.85117617535360    4.40473236006484
C         5.73530190224452   -0.18529670896690    1.56009735951534
C         5.08858350467657   -0.01254405471018    0.40012417078870
S         4.92211875033857   -1.27264161160210   -0.74896067242381
C         6.24194832896959   -2.32501355522656   -0.33594351429201
N         6.59354757247565   -3.30020446253539   -1.09742024947043
C         6.74075347937127   -2.30068744679320    1.05398104240073
C         6.49604081601498   -1.35449587439438    1.97954805763314
C         7.02473759627650   -1.65789556144786    3.35579075430704
H         0.21712881198715    2.48350067628142    0.17603245572437
H         0.81123745443008    1.31360423664513    1.41225637939193
H         0.63796121491633    0.70763265900244   -0.14865627721920
H         1.99035924494124    3.71885821541601   -0.74329785866210
H         4.52608137110040    1.72326703067186   -0.70322003794337
H         4.50667648515296    2.89260440623294    1.80725239011163
H         6.02521819042240    2.78312715629379    0.97291810563596
H         6.61150773939621    1.33516629170778    2.89560982929830
H         6.19956756400910   -3.34686489817825   -2.04560859817399
H         7.38000724455208   -3.12821378246699    1.34584472171754
H         6.86200275604134   -0.85971828461553    4.09029939979505
H         8.09861293150550   -1.85845375348702    3.29711634294731
H         6.56064348986480   -2.53013991922492    3.82660749311939
