30
 energy: -48.304099184340 gnorm: 0.134340799098 xtb: 6.4.1 (79825abcba525fcdf90b791dcacef51065a7a4e7)
C         0.86587233722425    1.63050700056228    0.10315356779385
C         2.34269175993887    1.71135822963259   -0.10750134309011
N         2.98404491116305    1.87412039910572   -1.21171165704571
O         2.99100577689323    1.64866313133548    1.07107534560152
C         4.42764630007498    1.62494488297679    1.00902624236711
C         5.03288014987096    1.97186681650057    2.36966216039767
C         5.64213378665612    0.67574862994521    2.94304606665566
C         4.72171038743500    0.03822351825657    3.89435139117028
N         3.89576469113798   -0.29514518315376    4.64027302586037
C         5.76831975718482   -0.20870572578216    1.72564907200082
C         4.99355380107629    0.26603840023401    0.74178847338312
S         5.09801550804081   -0.37872216848812   -0.84229608686441
C         5.97741143961705   -1.85598847530590   -0.58858949013912
N         5.93308011425141   -2.83789116230448   -1.41826893919051
C         6.79870639624399   -2.03916873133606    0.62516838597621
C         6.69152895274470   -1.33460897648050    1.76707276424891
C         7.45098918526828   -1.61663445988589    3.03565362148001
H         0.49564960739669    2.10670825833729    1.01450210182279
H         0.60678661899882    0.58482584185361   -0.08412993773599
H         0.41400687070783    2.13995956796495   -0.75265991214828
H         2.32856609350702    1.91143833832305   -1.99999942422756
H         4.66510336417526    2.44173781304880    0.31691222176599
H         4.38901814085967    2.63043594107968    2.96568035614612
H         5.89848756062537    2.59695376999745    2.11485444287575
H         6.56249492193881    0.86311551235627    3.51108649855460
H         5.34354695208688   -2.67845292723208   -2.24500268529680
H         7.56776811436709   -2.80437503777855    0.58475803974841
H         6.96288078563503   -1.19932044878026    3.92485087147067
H         8.48668155528348   -1.28175068593563    3.14551113866584
H         7.37163554883134   -2.70816425697451    3.04695286374052
