30
 energy: -48.300180068446 gnorm: 0.142004553595 xtb: 6.4.1 (79825abcba525fcdf90b791dcacef51065a7a4e7)
C         1.20489129985203    1.39347979271547    0.55077088510652
C         2.47656321539179    1.77851587303948   -0.13224140858628
N         2.66124744389825    2.13912255302684   -1.35410898791637
O         3.44552297310769    1.60283675879949    0.78620217607402
C         4.82942535472915    1.64217488449087    0.39682390672571
C         5.63707927283395    2.38805302446036    1.45953458459607
C         6.03449067716268    1.27690222500475    2.45315907560382
C         4.89254547520018    1.05549147609581    3.35067669283139
N         4.04738835419582    0.78370119929475    4.10004950496360
C         5.94225668313157    0.00780221812346    1.64006857698682
C         5.42339082976595    0.26952883455824    0.43346024652246
S         4.94893986740731   -0.90689152460892   -0.71844425831840
C         5.36176264311314   -2.43535026265044   -0.00191695419790
N         5.36042196568736   -3.61116364604826   -0.52338348524273
C         6.06272582404798   -2.40461723978677    1.29769641459098
C         6.39164293865343   -1.32247447195185    2.02750315450102
C         7.06000393700067   -1.58175140267649    3.35101548677494
H         0.39066628382911    1.92894501314402    0.05609595883885
H         1.24785221672448    1.69954103729156    1.59964193711022
H         1.11215435194207    0.31625095507668    0.38609264357887
H         1.82812640746738    1.97298929153427   -1.92921923281335
H         4.90454049644054    2.19800174911856   -0.54549910165379
H         5.06613061186135    3.06622492222623    2.10576195076355
H         6.54704731169274    2.79624797022601    1.00098039482925
H         6.98778485533731    1.43455423147810    2.97394409630159
H         5.00834658372077   -3.57405817667584   -1.48833152346517
H         6.64620851471954   -3.28871734149904    1.53548764694372
H         7.69879828708468   -2.47332583204341    3.36147536944113
H         6.29352856141596   -1.90510574633651    4.06153080542870
H         7.53149749147315   -0.76495404037368    3.90635134412041
