30
 energy: -48.309218163461 gnorm: 0.125105720347 xtb: 6.4.1 (79825abcba525fcdf90b791dcacef51065a7a4e7)
C         0.94658595686835    1.40850453454454    0.07796786058278
C         2.31836118856466    1.82935445208333   -0.33799618190758
N         2.82376522188578    2.84933916238596   -0.93908166962292
O         3.16191109241445    1.06262320286364    0.37882423404186
C         4.56497583447233    1.36202758600317    0.27825086718303
C         5.15371282338514    2.26187369211677    1.36529212141505
C         5.78499145455818    1.31257910012672    2.40462291792228
C         5.05306403103158    0.99971266187651    3.63953025848188
N         4.42876861210167    0.69065270962065    4.56929218208805
C         5.98744922988944    0.03316644374653    1.62850956809065
C         5.19495681309389    0.03230083172386    0.54888881499472
S         4.88909380800886   -1.17630656287209   -0.62655506773140
C         5.76237869939492   -2.51748458734218    0.05067087658433
N         5.74743706856349   -3.68415456671324   -0.49073843115436
C         6.46320154377418   -2.28524995008478    1.32981238139754
C         6.54684173882475   -1.21170594291227    2.13749092196039
C         7.32320897283579   -1.22181960930981    3.42697424155851
H         0.47825179299236    2.23324279357402    0.62097667669241
H         0.91760593320971    0.58350800200824    0.79503862865052
H         0.28401873639716    1.15705736178295   -0.75505076381101
H         2.09980564807061    3.46047091559261   -1.33258291373479
H         4.64643094786708    1.73661202689711   -0.74917792896682
H         4.33452079405419    2.80068509288388    1.85734492873841
H         5.89903706821391    2.96926402273768    0.97925126283627
H         6.77770322611231    1.58506548078375    2.78556308934184
H         5.38105304956149   -3.68649467950219   -1.45105913834413
H         6.89879216154555   -3.25808323377794    1.53593327778192
H         6.69231140812944   -0.78359490711352    4.20991735303989
H         8.19113510181395   -0.56449930557593    3.31969534169099
H         7.66813536527880   -2.21805350778865    3.72092281117568
