30
 energy: -48.306761435571 gnorm: 0.145529206960 xtb: 6.4.1 (79825abcba525fcdf90b791dcacef51065a7a4e7)
C         0.98212078842433    1.92484479398740   -0.46487546476710
C         2.46050178051734    1.74378578786380   -0.58113078400570
N         3.16596830763539    1.67966123593835   -1.65598464749614
O         3.03401747449380    1.52381699901404    0.61719230850273
C         4.46938714737795    1.61012629098105    0.59242837503344
C         4.94351401854227    2.18018641974749    1.92967483835181
C         5.91119467902195    1.18335357628298    2.60034604530282
C         5.45464443725938    0.91303861912769    3.97041575390187
N         5.09620641269566    0.84085961063433    5.07315436042947
C         5.76771689901471   -0.05692592916816    1.75101766255408
C         5.06965020723359    0.24084138675107    0.64753976631553
S         4.67369374490836   -1.01833639805007   -0.44499953004964
C         5.45646130099048   -2.50103643532429    0.01205137126884
N         5.40113931548569   -3.68051428759626   -0.49808352187213
C         6.41313258091060   -2.35503489526993    1.12773600647867
C         6.49722010277708   -1.30028430871875    1.95976217350174
C         7.46841765585939   -1.37048586017394    3.10756994019397
H         0.35797514793037    1.70483369799388   -1.33460300555065
H         0.87900100919563    2.93917551570157   -0.06971840127854
H         0.55141562773425    1.39709989827527    0.39076430752536
H         2.75337730237447    1.92340156447153   -2.56306900249786
H         4.83794505071700    2.13063063615201   -0.29964710822222
H         4.07399243607497    2.37222193606089    2.57042740386227
H         5.47679346131512    3.13309742283367    1.81782443234398
H         6.97889623398602    1.43799350891643    2.59676959089145
H         4.78421509987116   -3.79485850894168   -1.31220175419771
H         6.85625472319049   -3.27328828171634    1.50067446889738
H         8.45214088340380   -1.05474580675584    2.73923669946170
H         7.49935019250433   -2.35690199678711    3.57969374878478
H         7.30072855818079   -0.72540814526389    3.97568114713140
