30
 energy: -48.310842280115 gnorm: 0.123550576837 xtb: 6.4.1 (79825abcba525fcdf90b791dcacef51065a7a4e7)
C         0.86798664575365    1.61440478046686    0.26266328341280
C         2.30235188468205    2.03208133878522    0.25554362264526
N         2.79669449345450    3.14703517011199   -0.15629270224129
O         3.22015187376390    1.07543837116417    0.49168381105394
C         4.59121456930483    1.29715349965345    0.11834991201652
C         5.29947184574882    2.20476230869682    1.12463561293424
C         5.64500072498908    1.22255364295708    2.26294905541161
C         4.57695741739482    1.04552519540990    3.25619820975274
N         3.70281850209961    0.99594149982695    4.01983604956574
C         5.85802564316822   -0.09346366249137    1.55375448771229
C         5.20123481805784   -0.04210160985083    0.38772961320703
S         5.16200732931821   -1.34347400192863   -0.72620201063782
C         5.85317656196731   -2.69180675388965    0.12485851267346
N         5.79845144803629   -3.89057356646914   -0.33820687042083
C         6.56724154808500   -2.36413772630487    1.37547157000904
C         6.60553999683702   -1.22332298634207    2.08885245045651
C         7.44170295228316   -1.15364980821875    3.33848960165997
H         0.36362877512822    1.89270102166276   -0.66607941617299
H         0.25717368829351    2.04170803890204    1.06264394928840
H         0.75080129573381    0.53116767939372    0.35756328353104
H         2.19903435358520    3.95825604760025   -0.34907693533504
H         4.77211470692018    1.54092213009076   -0.93541022553535
H         4.54676490035383    2.95269404821148    1.40309507975317
H         6.22081445991672    2.58936405820586    0.66840521895327
H         6.55519201348972    1.47818844762318    2.82066192674130
H         5.39080910288583   -3.94052418812968   -1.28043362764205
H         7.03653897060022   -3.30321724534241    1.65209279219495
H         7.33292443833852   -0.19525208107154    3.86070950013092
H         8.48486691519813   -1.25987312500040    3.02639970193700
H         7.26590258667215   -1.90461159937362    4.11502848365046
