30
 energy: -48.308546787050 gnorm: 0.125156586271 xtb: 6.4.1 (79825abcba525fcdf90b791dcacef51065a7a4e7)
C         0.82257506495035    1.74380559507892   -0.33479946023599
C         2.26150248247023    2.09581730393746   -0.14119247507224
N         2.68482129670672    3.25884162631364   -0.49514362059170
O         3.04545986139865    1.02909820997323    0.10539615951564
C         4.46200147596318    1.23733498926558    0.24102782121915
C         4.86914736324794    2.11746395741163    1.42322838593223
C         5.82361458949409    1.29771280191435    2.31591075173377
C         5.22212224422705    1.02177837373411    3.62765252330012
N         4.58089259378357    0.68895849514140    4.53747422836659
C         5.90588325148463   -0.06973519074725    1.68065041725256
C         5.06127118115561   -0.07375185250956    0.64130433454124
S         4.80397335056614   -1.40665401060361   -0.40422041662452
C         5.89609136842967   -2.65293153664680    0.11931615786236
N         6.02933855111966   -3.75309549010162   -0.53363912418243
C         6.61981306551173   -2.39181391638679    1.38000370063280
C         6.61878003690784   -1.26366269007943    2.11424534989208
C         7.49413813418455   -1.20602307928125    3.33737310084904
H         0.22513901026211    2.65875492216778   -0.35287010322121
H         0.57105022122090    1.05770638712356    0.47862093311911
H         0.66716851155004    1.30395779802125   -1.32400305357428
H         1.97152944697708    3.96319546505396   -0.71318746833135
H         4.96057352907625    1.63862614846258   -0.64944940379650
H         3.97157869596962    2.38855021213531    1.99278260070997
H         5.38774679749756    2.99023100334011    1.00577279652256
H         6.82409051471708    1.73378947799498    2.43306858252928
H         5.46198169827921   -3.83391986171470   -1.38688715860582
H         7.26050913100630   -3.18041003663967    1.76243581382644
H         7.13071298543046   -0.68716779673847    4.23279696505882
H         8.29188045999869   -0.53564977442722    3.00408444095912
H         7.78816921682113   -2.24629330389982    3.50838640955882
