30
 energy: -48.311767578389 gnorm: 0.132227546548 xtb: 6.4.1 (79825abcba525fcdf90b791dcacef51065a7a4e7)
C         0.95867901746609    1.72077841000623    0.62240843173107
C         2.35212419969060    2.07617019700628    0.21754397867971
N         2.84360007605215    3.11528254557157   -0.36194096398884
O         3.13107779065194    1.02804249575915    0.54609288132841
C         4.48341250773319    1.19886102021532    0.08744214757351
C         5.26042766776197    2.16947727471746    0.97746712868128
C         5.78413164899211    1.24828131633826    2.09863330368584
C         4.74991572276166    1.26003701521518    3.14211714975242
N         4.03209433326221    1.17624930634836    4.05175011875692
C         5.77980416945854   -0.12673766342248    1.47450038414810
C         5.13367815451613   -0.13142601170075    0.30141678717931
S         5.03888999748147   -1.51394529540757   -0.70635696921040
C         6.12398704086054   -2.65994848279079    0.02114634378716
N         6.51988217415918   -3.75036802017330   -0.53447799604940
C         6.56642263483448   -2.38671584804107    1.40349335186569
C         6.42809572473528   -1.25804365766438    2.12377232390669
C         6.92879008424580   -1.14315111242383    3.53859403107478
H         0.89853884608124    1.97423557044168    1.68379021357930
H         0.66601588787142    0.68299794231404    0.44072298882064
H         0.24703566090218    2.32212650468785    0.04962118226926
H         2.07595197512927    3.74345082453910   -0.62378771265574
H         4.34454599892175    1.51184385844928   -0.95434295507047
H         4.59596535156699    2.94215617840197    1.38362770225636
H         6.13129763833378    2.51577610326483    0.40597830848109
H         6.73375996154008    1.50400817097729    2.58612765343895
H         6.11068972398800   -4.04688937106437   -1.42951721851489
H         6.70541262912335   -3.30227963573044    1.97010992394024
H         6.12386459214533   -0.63514428931451    4.08365968443414
H         7.80810905122198   -0.49231333647443    3.52949164271426
H         7.01711997784008   -2.15255752273372    3.95230708612085
