30
 energy: -48.307601987732 gnorm: 0.132324384143 xtb: 6.4.1 (79825abcba525fcdf90b791dcacef51065a7a4e7)
C         0.90244631857039    1.40544865744991   -0.07980965538056
C         2.32575765544772    1.72368430763614   -0.40356717289909
N         2.83158166268828    2.61437177327099   -1.18326180512111
O         3.19228866525464    1.13746242123765    0.44422564469882
C         4.59753158535775    1.41740439831307    0.32063975347468
C         5.13712570265770    2.25015360453138    1.48397972501855
C         5.85344684062755    1.27860507286776    2.44463518785147
C         5.01578715282711    1.00692410918852    3.62069428619992
N         4.37532730449434    0.75274623901570    4.55606846354153
C         5.99273593120972    0.00897786668221    1.63910237251855
C         5.33675253463202    0.12617395213786    0.47738950367404
S         4.78792912940976   -1.14274394553148   -0.53483209444473
C         5.62814857695100   -2.47979086517083    0.19067240917823
N         5.49828231902106   -3.67779600474804   -0.25919932358736
C         6.50306026029789   -2.28175119309394    1.36395771409852
C         6.71362429908559   -1.17160064755653    2.09543949147685
C         7.55730154505801   -1.19859412778342    3.34167207229379
H         0.24891674519894    2.02644072193982   -0.69759328348321
H         0.67310839549167    1.42474786544596    0.98915304923517
H         0.77855920673844    0.38792684502699   -0.46117873588471
H         2.19697522153618    2.84410703182797   -1.95588013829421
H         4.74808043263381    1.92429723167490   -0.64006471071241
H         4.33405771335845    2.76254145571125    2.02808427712518
H         5.83990719930464    3.04682728413731    1.20767179593549
H         6.81262620159080    1.73843779065581    2.71550363035275
H         4.85044022370770   -3.59774000528684   -1.05314532117793
H         6.74760569660131   -3.21917903662334    1.85391299129701
H         7.16806915550720   -0.57037625167660    4.15217375848329
H         8.48770287331920   -0.76058690152768    2.96833904236160
H         7.71120933801153   -2.22492052986915    3.68927596585629
