30
 energy: -48.309735703009 gnorm: 0.127116708029 xtb: 6.4.1 (79825abcba525fcdf90b791dcacef51065a7a4e7)
C         1.37155363930921    1.96096589892387    0.96305794262079
C         2.68565054205311    2.34907875536567    0.36772126371056
N         3.03439927409473    3.46142607111076   -0.17832230350238
O         3.57067727502275    1.34019380316096    0.47800991711399
C         4.93352705743781    1.36499789943879    0.01934459186929
C         5.73108879165649    2.10869162209543    1.09116914413812
C         5.90020139818819    1.05128761559871    2.20165513335208
C         4.84113792095113    1.21720965921714    3.20637087316012
N         4.06835978552332    1.39230317495092    4.05600389280571
C         5.78615459998571   -0.22895327966335    1.40905537096161
C         5.32204735841267   -0.07265338713207    0.16253993121266
S         5.01505247174338   -1.37786841367296   -0.90428722451484
C         5.35275621784096   -2.83023412908680   -0.01175712838813
N         5.39278870700944   -4.00285383284999   -0.53884967803901
C         5.83315945656525   -2.68634055586553    1.37741382565997
C         6.09055427234935   -1.52318366122463    2.00403251087929
C         6.70921271193997   -1.51008033878749    3.37614972078302
H         0.69824687472134    2.78732244996002    1.20426637860527
H         1.58526120759621    1.39856544286782    1.87612114347317
H         0.86300671050537    1.33456147404896    0.22472295888511
H         2.25663313424057    4.07195967097133   -0.45176565741391
H         5.04838740157703    1.74386649362278   -1.00331080220454
H         5.10911086596618    2.95080843001560    1.41902888844452
H         6.62689177538015    2.37480003120254    0.51526968752869
H         6.85496949217305    1.09066526466120    2.74175528865444
H         5.17815747223371   -4.13578384987226   -1.53520384480466
H         6.10745634019336   -3.67884590095757    1.72139632546013
H         7.41484047590881   -0.67189446387639    3.42720304542686
H         7.23750941230236   -2.46508872587199    3.45188668572907
H         6.03945250883391   -1.35496559351561    4.22774976849085
