30
 energy: -48.316277051150 gnorm: 0.117657086752 xtb: 6.4.1 (79825abcba525fcdf90b791dcacef51065a7a4e7)
C         0.87568590264190    1.63715622982433    0.08642739680372
C         2.30662895878549    1.71916666747384   -0.33498010381564
N         2.76546226960466    2.17402740032607   -1.44838906523048
O         3.07177575285013    1.43163943025260    0.73514289269870
C         4.46409091918529    1.32690046359207    0.39041564615697
C         5.29391210070729    2.18168417369282    1.34892207175926
C         5.84758664228994    1.25771483796103    2.45328008463994
C         5.04459784070235    1.17004515390793    3.68052183744385
N         4.43096519648803    1.23904106901360    4.66460242578936
C         5.81411429037061   -0.05829981669402    1.71353494836047
C         5.02871797447248   -0.03787054235840    0.62893307243510
S         4.87599686252495   -1.24770402012245   -0.57478265542110
C         5.82640233076459   -2.54413206858572    0.08553828905867
N         5.94865523760000   -3.61356894563367   -0.61861022866372
C         6.56789670689763   -2.33945094546340    1.34632388569754
C         6.52409367948532   -1.25542739789474    2.14307435014353
C         7.30984863867190   -1.13918397017344    3.42162518258653
H         0.19298276426652    2.28451624341273   -0.46965721595084
H         0.84045773945969    1.91138518174132    1.14435322852503
H         0.45638191148581    0.65961968638745   -0.16802790442526
H         1.99254127683774    2.19142317989115   -2.12272817818268
H         4.62122831201371    1.61394088001382   -0.65623329847480
H         4.61279414981068    2.90754890446331    1.81012485248286
H         6.10873148508634    2.65013077852868    0.78185593021270
H         6.88262123423367    1.53821429766606    2.68751147878806
H         5.46304665823235   -3.60299514298010   -1.52444193980238
H         7.13126911420119   -3.23251089028493    1.59868291049053
H         6.70546310900190   -0.91752748710450    4.30968997734358
H         8.03815908207550   -0.32628222025316    3.34659749614576
H         7.76948892884324   -2.11358333855640    3.61433906604322
