30
 energy: -48.308557505882 gnorm: 0.132002564372 xtb: 6.4.1 (79825abcba525fcdf90b791dcacef51065a7a4e7)
C         1.02174781113366    1.73952364680730   -0.93804225084517
C         2.43488644298091    2.08406028586991   -0.59709980882014
N         3.27034059008100    2.91154211830090   -1.12092803123383
O         2.86082415965664    1.40096203655689    0.48236238265353
C         4.27062546699615    1.34908897535596    0.76185868953175
C         4.54205832364085    1.89127949778316    2.16554906781576
C         5.76408029124204    1.09418133573866    2.66672607603508
C         5.70472462802326    0.73016581099474    4.08889662541712
N         5.47243764968461    0.59961229850448    5.21970106471447
C         5.73806073330225   -0.12034051127586    1.76978808111353
C         4.77139672140151   -0.05825568241327    0.84494624744785
S         4.40096590560522   -1.24055826862671   -0.33864750356498
C         5.62794253201096   -2.43043597089448   -0.02441902933424
N         5.70483090266723   -3.50017043448189   -0.73450536107686
C         6.59744190037901   -2.29590059136964    1.08159182060757
C         6.63971667067405   -1.25285936413253    1.93136540269157
C         7.77382358502122   -1.20043821970454    2.91963123402894
H         0.93667013604712    0.84119967368185   -1.55461705612168
H         0.54015219281333    2.56758602182413   -1.46532583018115
H         0.35693820175935    1.64040027872930   -0.07528865039861
H         2.86089782639646    3.42940901683086   -1.90617526243889
H         4.81715423003883    1.90509388290525   -0.00932435580501
H         3.71267155650775    1.55645380001706    2.80078024307320
H         4.39554660505702    2.97697845152454    2.23431675793111
H         6.65678737080569    1.71859394216106    2.53247275703649
H         5.03398557330361   -3.72534095631498   -1.47997393155452
H         7.37008219276832   -3.05583312312256    1.14608396225227
H         7.52748245104548   -0.61203623940063    3.81191579723183
H         8.73485759938291   -0.94924833476664    2.46116442262989
H         8.01388962049175   -2.23876036545948    3.16886490275105
