30
 energy: -48.298857759633 gnorm: 0.140667079068 xtb: 6.4.1 (79825abcba525fcdf90b791dcacef51065a7a4e7)
C         1.02517641949192    1.81061004592090    0.22493352328926
C         2.42665964687050    2.25972923938786   -0.03205817722444
N         2.91697284802343    3.30386200446546   -0.60344730883233
O         3.24273469880698    1.34484907867273    0.52498809820773
C         4.63894832596711    1.32013204427886    0.18100376503393
C         5.45077304348872    2.15448740087687    1.17235875114358
C         5.94842329188602    1.15778385709848    2.23950809569485
C         5.10393164914756    1.03501392169900    3.43548498912294
N         4.51487670287684    1.06284171785981    4.43646448576880
C         5.77720148624326   -0.18225377279391    1.56480810076419
C         5.11991816840641   -0.07911884025201    0.40249670748005
S         4.80099488828880   -1.41619728562740   -0.62047029792920
C         5.63276156109065   -2.77807787281627    0.06761795938369
N         5.90026956812008   -3.82975843791461   -0.62294238919839
C         6.25256140470627   -2.56628469753693    1.39135524324975
C         6.28496046124747   -1.43173842412331    2.11495189595396
C         6.92104347930177   -1.39396263797962    3.47861864421924
H         0.91203894084724    0.74317099853425    0.01959855387231
H         0.25199889652918    2.35637103220462   -0.32278088213497
H         0.89199755334017    1.99238497335863    1.29514952770311
H         2.27656646753596    3.93758805781859   -1.09407310261503
H         4.70957749369800    1.80108634136376   -0.80197784562118
H         4.92950975336386    2.97215954468637    1.68539492686194
H         6.31845450399019    2.59188439808069    0.66172227907234
H         6.99115359580105    1.29588497972073    2.55332730512624
H         5.43026976309718   -3.64671765114719   -1.51851753713400
H         7.11860564729872   -3.17466667187382    1.63315756477872
H         6.23772488726917   -1.85611332845158    4.20150521104929
H         7.24240703754177   -0.37246332654096    3.70253633101710
H         7.73185385493966   -2.12357146126182    3.56872670470397
