30
 energy: -48.308710083764 gnorm: 0.129332931678 xtb: 6.4.1 (79825abcba525fcdf90b791dcacef51065a7a4e7)
C         0.92583890957380    1.47237801530835   -0.51862100993161
C         2.34869645377556    1.90062812191062   -0.36374597319729
N         2.95996957731371    2.82809704189563   -1.01432446874957
O         3.01428223042555    1.15911583318870    0.54203537701002
C         4.43418362565241    1.38613954295183    0.51578829530080
C         4.94169132597379    2.08986676079338    1.77483431390636
C         5.92137744917275    1.18036827548123    2.54484019003807
C         5.20460979722074    0.95724329563029    3.80779651366112
N         4.74883697465586    0.81137504485976    4.86643415016926
C         5.97941947449108   -0.02907335785643    1.64255428069322
C         5.07922810219623    0.04329869575972    0.65359335728705
S         4.60607958914168   -1.22934712139123   -0.39161256737657
C         5.68092946804147   -2.53182237169202    0.01860191931024
N         5.77359163490045   -3.57782241338205   -0.72420610602533
C         6.61198755445573   -2.37814706098287    1.15473716877589
C         6.66295597367286   -1.28185954552956    1.93409134283532
C         7.52381479571926   -1.17341917819509    3.16404189922713
H         0.43338537005836    2.11817479408566   -1.24993810312790
H         0.53203976515102    1.66399424164701    0.48330466729183
H         0.68312309534964    0.44435426537478   -0.80216506878826
H         2.34635148191459    3.44285205683833   -1.56021073675578
H         4.70360115736093    1.79990389115361   -0.46338055023331
H         4.13916209844186    2.33825575759551    2.48035470085902
H         5.41856257892973    3.04943566863129    1.53659457196246
H         6.88847029436760    1.65143627621128    2.76316850468673
H         5.16787945766133   -3.56720051641345   -1.55454249497122
H         7.28728399099606   -3.20251260573817    1.36216370816201
H         6.85639981892692   -0.82909504529941    3.96346086491671
H         8.31409311806430   -0.41690717828645    3.16896818116864
H         8.02274523691959   -2.05501149838390    3.57843947218779
