30
 energy: -48.310645308998 gnorm: 0.127418305097 xtb: 6.4.1 (79825abcba525fcdf90b791dcacef51065a7a4e7)
C         0.83294500206478    1.68648783645812   -0.14128033308634
C         2.28668940265487    2.02957659849752   -0.17000937048315
N         2.81590507623896    3.01246843831432   -0.81107116503670
O         3.08587609483190    1.24013111958985    0.57252766446205
C         4.50274022303706    1.47178982976593    0.65725669870736
C         4.90718306932456    2.00212232658132    2.03318055928959
C         5.75316176858959    0.91843921400433    2.73306091852656
C         4.97665852239837    0.45310916392824    3.89026017361457
N         4.26892531835674    0.33938842295304    4.80453663162552
C         5.94590466064209   -0.17042727648157    1.70473312278551
C         5.17243996631207    0.13395960308775    0.65462490993112
S         4.81223409764046   -0.96678991450575   -0.60813191391329
C         5.95420081253043   -2.25988406302464   -0.39875264442402
N         6.23460386890134   -3.16756511878408   -1.26590631062622
C         6.70512333891572   -2.28807706090788    0.87270687991106
C         6.71239368369524   -1.39643539580173    1.88105186233699
C         7.36769312203697   -1.63268669516760    3.21536209831246
H         0.67554183951690    0.98855325588890   -0.96741605268662
H         0.22414024173334    2.58329233661581   -0.28532220964707
H         0.59454623098728    1.12770319571685    0.76815178931242
H         2.08261126909293    3.58932855713070   -1.23763336585384
H         4.65850971776800    2.04943652723444   -0.26177463743129
H         4.02448664077016    2.22261137720022    2.64615764028744
H         5.46766550681217    2.93847412687703    1.91468314540324
H         6.61277592994883    1.32691946333075    3.27991407144448
H         5.71139340870113   -3.17204101411967   -2.15060365448260
H         7.42719138218522   -3.08240940152652    0.71058473895722
H         8.16575408173532   -0.88335821858217    3.28375889799152
H         7.76119761324283   -2.65321108633263    3.23899966204389
H         6.61231892501108   -1.39110421428696    3.96962314746054
