30
 energy: -48.311714463366 gnorm: 0.127435491280 xtb: 6.4.1 (79825abcba525fcdf90b791dcacef51065a7a4e7)
C         0.89464167107509    1.54628234509725    0.59740711284280
C         2.27379033929269    1.98819106515633    0.23056428917255
N         2.65231213542437    2.97315594802070   -0.50677636358830
O         3.18952883111759    1.06702177104055    0.58574720341575
C         4.56805436210376    1.40869830992919    0.35931143283137
C         5.10887830222238    2.13842988211959    1.58934974494899
C         5.48525919593973    1.03068828571966    2.59489806378400
C         4.40101271670625    0.70767923558375    3.53227420358316
N         3.51018240197406    0.61244638887885    4.27191743816985
C         5.73514015854877   -0.12522491448389    1.65592947933410
C         5.29785266042709    0.10369902531011    0.41093974584503
S         5.19028042854101   -1.07600919420468   -0.82707037870940
C         6.19551341783630   -2.41038140600723   -0.34855453525723
N         6.38739293131190   -3.47996402462804   -1.03677064053119
C         6.76590529018065   -2.32321937906354    1.01098379773641
C         6.53209712664032   -1.32343852840839    1.88139119661428
C         7.30351135072571   -1.34591202468012    3.17368785596464
H         0.83810349937698    0.46304386851443    0.46404108591564
H         0.16986794040752    2.09771711303132   -0.00779726827169
H         0.57781447281187    1.79699175885906    1.61372711511309
H         1.95070884375124    3.71580797164955   -0.59985432043549
H         4.66104555154847    2.03479108293827   -0.53618778393719
H         4.45792677058468    2.94455705040232    1.94980828705924
H         6.07373830254332    2.61020616283721    1.36261381923709
H         6.43741293256810    1.20577624248836    3.11218750960528
H         5.98067265449458   -3.51662247153021   -1.98000622052161
H         7.34799147181538   -3.18047539745681    1.33489335549902
H         7.24431351152965   -2.32417929793504    3.66619298485957
H         6.87180718179969   -0.71503747747086    3.95631377141834
H         8.32426553971705   -0.98878257357829    3.00522003513725
