30
 energy: -48.309526853473 gnorm: 0.123464761459 xtb: 6.4.1 (79825abcba525fcdf90b791dcacef51065a7a4e7)
C         0.95412051701355    1.38198615261974   -0.10627233096767
C         2.40236790032257    1.74862446249923   -0.11426632717175
N         3.00418274863911    2.19417206425921   -1.16136328766623
O         3.06924585444027    1.49945913539769    1.02874513978888
C         4.48847936257989    1.71997065822467    0.95458554282360
C         5.08214819794965    2.13384617883802    2.30152927478759
C         5.68342805514283    0.84930563863998    2.90840629694070
C         4.97657263224773    0.20733030767975    4.02501839067746
N         4.57280951633549   -0.43906673857435    4.90186863535484
C         5.81704666675815   -0.10766322714148    1.74797759254076
C         5.12753182989240    0.38900695079403    0.71283784336437
S         5.06881150194696   -0.36810601695627   -0.82315839718477
C         5.84853628112702   -1.89979479361603   -0.56629482939652
N         5.77789219800856   -2.79888944479886   -1.48341230967941
C         6.45451976096268   -2.26542714496850    0.73000213357048
C         6.44113583687304   -1.42340335252195    1.78007552782613
C         7.17600786823165   -1.75645776717949    3.05076577290081
H         0.75522730194688    0.33369653673315    0.13019972324692
H         0.42544421308666    1.60619631315702   -1.03679948228931
H         0.46483091287992    1.99818527595951    0.65335610268505
H         2.45518664039232    2.31651496835745   -2.01931328776610
H         4.70899610439823    2.31395651124197    0.05953715792049
H         4.31464810282508    2.56449166015678    2.95650819663365
H         5.85810429111933    2.90893135621298    2.25600996161354
H         6.68629229798397    1.00210691551123    3.32763900770358
H         5.21170199616378   -2.52225354172019   -2.29542206357790
H         7.13975406893502   -3.10445600729334    0.65848827550642
H         7.73200306677470   -0.83632100204789    3.26822900044327
H         7.74797539923022   -2.67598718476943    3.20630791622580
H         6.40107826594191   -1.88511354974835    3.81286406472681
