30
 energy: -48.309780350412 gnorm: 0.139265438789 xtb: 6.4.1 (79825abcba525fcdf90b791dcacef51065a7a4e7)
C         0.99488900400037    1.66535261220315    0.10598199937924
C         2.42925992782320    1.51520021644419   -0.28381581060929
N         2.99334521733269    1.26071635340987   -1.41259903073145
O         3.29456691749168    1.66418344677227    0.73713108580699
C         4.70930696347219    1.71812454236755    0.48424847771714
C         5.44401387670216    2.31780277035269    1.68365863201285
C         5.93689858191809    1.15712413141887    2.57234935846375
C         5.19824160898547    1.12849225411519    3.84206010867003
N         4.59205557746669    0.94361950810692    4.81575442432069
C         5.78415044032286   -0.04545364464302    1.67195359595114
C         5.20324706536592    0.30631640944760    0.51764208933433
S         4.90063822667634   -0.86119003537753   -0.69944826301307
C         5.54141259315335   -2.37714943548212   -0.14150983075081
N         5.43823034316030   -3.47980080801093   -0.79571126558878
C         6.19754481293822   -2.38874158685339    1.18160948823809
C         6.32126591389632   -1.35117448493173    2.03012858962652
C         7.04463774653561   -1.49839944774735    3.34187308684380
H         0.49284550993541    0.80667288199308   -0.34679842201114
H         0.50663325061102    2.60589599477418   -0.16352508966568
H         0.97747400173218    1.64095582639995    1.19925348692403
H         2.36072009639984    1.30517482524744   -2.21898083467050
H         4.65886101025925    2.24255549182577   -0.47751331813647
H         4.82016772174356    3.01794483259851    2.25297957651991
H         6.32373129596133    2.84026237466254    1.28607834854381
H         6.97747806504548    1.26524376177656    2.90453211803534
H         4.88346814132162   -3.32014719295054   -1.64612775892680
H         6.86505263829603   -3.21646501082816    1.40055435506296
H         8.10329673449784   -1.28865021709052    3.14612080049541
H         6.79142993336486   -2.48623562180184    3.73802963301031
H         6.68701711351736   -0.80185425692115    4.10659149544412
