30
 energy: -48.314057746830 gnorm: 0.123196555161 xtb: 6.4.1 (79825abcba525fcdf90b791dcacef51065a7a4e7)
C         0.89821907472640    2.22976520847350    0.04736936663094
C         2.36558208699666    2.15101071207643   -0.22198456646978
N         3.07656064388657    2.89664680966895   -0.99376310327130
O         3.03443378238727    1.29812794159629    0.57708560819660
C         4.45469879027338    1.28743841493553    0.35107302587524
C         5.16680473958774    2.14972290098611    1.39384026761479
C         5.77214610447331    1.10441782814651    2.35341338557009
C         5.06004062168499    0.83622155561111    3.61022516236338
N         4.58747825064210    0.67107732018028    4.65862024348382
C         5.80967246402469   -0.19775131251212    1.58974780388836
C         4.98587210058749   -0.09857162145163    0.53849032733769
S         4.73848934906233   -1.34144821851857   -0.61477107343118
C         5.71050399323566   -2.59142598530912    0.10130370661565
N         5.87874576889500   -3.72677888826678   -0.47932925449493
C         6.45808385749154   -2.48910359203576    1.37092690483333
C         6.52801441192317   -1.35849574979843    2.09802571588981
C         7.42960456000373   -1.35159673716397    3.30330709825980
H         0.38651110439542    2.41133084408619   -0.90109124499175
H         0.72250349766263    2.98796988559622    0.81541839524963
H         0.55389706885603    1.31281798959168    0.53398131133988
H         2.51042385251223    3.45265336062150   -1.64398503603196
H         4.69053306603135    1.57162290876214   -0.68148677267132
H         4.43277253895120    2.85551831256718    1.80195646431868
H         5.91511946463021    2.70183165546541    0.81062688469162
H         6.73693640688678    1.51733076819450    2.67516401771576
H         5.40545959486812   -3.97095686214578   -1.35844011192233
H         7.07103272080816   -3.32146860958158    1.70272771027126
H         8.35088808379738   -0.78337556835624    3.12601097713326
H         7.76252720720562   -2.37890160361555    3.47846911170307
H         6.92929645659164   -0.91144888621290    4.17153727033393
