30
 energy: -48.315203702906 gnorm: 0.115816577173 xtb: 6.4.1 (79825abcba525fcdf90b791dcacef51065a7a4e7)
C         1.14401419385382    1.52484974367702   -0.70568795281214
C         2.55512451097169    1.87683887716283   -0.36395802206478
N         3.37955783887584    2.50461562024900   -1.12770657813696
O         2.85352501617592    1.43679350676682    0.87321697198358
C         4.25863622030096    1.56775751260211    1.15045257575507
C         4.56903348855189    1.83351350415244    2.62389080723394
C         5.60329939003861    0.75055082860926    2.99452176990050
C         5.53203446516463    0.23152750387100    4.36715987495959
N         5.55209566215729   -0.14777820684356    5.46508736326329
C         5.57682432944137   -0.26216679373980    1.87472719706301
C         4.92975974026611    0.26967902440259    0.82970404996131
S         4.77128459133838   -0.36801588290548   -0.75275705590845
C         5.68966650973742   -1.83964468807496   -0.64833823997538
N         5.85482720344312   -2.74342925993677   -1.54853906836958
C         6.26597230637872   -2.18260003359955    0.66754239699865
C         6.39617525116461   -1.46404395905155    1.79827729574915
C         7.33382249623068   -1.87893011735971    2.90023134118010
H         0.84619458234881    1.74183576980393   -1.73457531409043
H         0.46830987696032    2.08284445676506   -0.05168857731942
H         0.89608227637211    0.48879702431822   -0.45816914984647
H         2.88482390239399    2.91971081464010   -1.92481198203332
H         4.61291174042174    2.31224781178669    0.42741632348637
H         3.72181374042844    1.68189148286123    3.30413982645798
H         5.00709799696304    2.82208564590369    2.81299780330909
H         6.60809481728489    1.19212333127367    3.01003869313705
H         5.34863133336880   -2.62518297989534   -2.43524203161993
H         6.89462923812196   -3.06231296251439    0.56994506180873
H         7.90857451724587   -0.99660791287131    3.20721698770197
H         7.98023252411670   -2.67082770130821    2.51045345342524
H         6.75294552445773   -2.26654599783980    3.74296370303765
