30
 energy: -48.311795466667 gnorm: 0.125887013552 xtb: 6.4.1 (79825abcba525fcdf90b791dcacef51065a7a4e7)
C         0.85216646498914    1.95463644138851   -0.77523722368626
C         2.25424143897965    2.20587244952808   -0.32471055897835
N         2.93766585535944    3.29469160040005   -0.39186521772032
O         2.80863221734344    1.08889117149935    0.18351033200356
C         4.17672377996489    1.21968122103598    0.60726519751018
C         4.32699568911889    1.76910190283063    2.02626073017309
C         5.49051362006574    0.98808327117465    2.67133243874047
C         5.36759610759997    0.50548390710252    4.05357287585287
N         5.18164632567485    0.23715904422245    5.16853681936128
C         5.79838875879441   -0.16320664777400    1.74397999809168
C         4.99307461876657   -0.03183100088866    0.68198383285147
S         4.81312453640874   -1.21144504210556   -0.54768329993902
C         5.99345361481813   -2.43089303028992   -0.17379828822320
N         6.02548188033974   -3.52008491979026   -0.85724650982569
C         6.87182155753903   -2.24447925058116    0.99880926425929
C         6.69913409509306   -1.29200800200340    1.93412465874639
C         7.69476716638918   -1.23770297823684    3.06168024262005
H         0.54239231509727    2.73151052482544   -1.47872517440129
H         0.17010081694448    1.82202612039791    0.06906755829655
H         0.83977116609719    1.11835566218219   -1.47995124291527
H         2.47358311549286    4.12552077184881   -0.77500072203753
H         4.68591562033318    1.89110440806598   -0.09449901779478
H         3.43959310856238    1.57982747310045    2.64286527346168
H         4.53726589765169    2.84646672222295    2.02336522100955
H         6.33997707589158    1.68132530953097    2.72298807328908
H         5.54269514369760   -3.41242132044844   -1.75823714448964
H         7.63474732148530   -3.01132956651926    1.09108380372403
H         8.46127696424175   -0.47336980349924    2.88467708955365
H         8.15593986683903   -2.19581586861131    3.31900102961896
H         7.20290396068508   -0.77381813722154    3.92234478115340
