30
 energy: -48.307019287219 gnorm: 0.128818797569 xtb: 6.4.1 (79825abcba525fcdf90b791dcacef51065a7a4e7)
C         0.92481876323290    1.73256990206213    0.72518620412936
C         2.25475883418903    1.96993297227335    0.08735691470354
N         2.49748140607043    2.92795759317409   -0.73749482098976
O         3.15785864518929    1.05885459325397    0.49678538456281
C         4.53450398300356    1.36242660283873    0.21210960899168
C         5.09960889440265    2.15056523371110    1.39426310064351
C         5.66662262962899    1.10767311098667    2.37953102479995
C         4.91110736776239    0.81791225268191    3.60584038009781
N         4.13843049202249    0.88818123841318    4.47056737523483
C         5.76788124197539   -0.12260912274815    1.50982409373745
C         5.27693765116340    0.06522150063364    0.27802866165950
S         5.34971164675528   -1.12665683254243   -0.95082539836705
C         6.11012180506254   -2.49778565446467   -0.20129079610138
N         6.25784533756842   -3.67039435829180   -0.70886613432330
C         6.50703226735615   -2.40646500110093    1.21836099662294
C         6.34928002439854   -1.34969461443438    2.03701088009541
C         6.89480019270528   -1.39180305157399    3.43924132883218
H         0.18469025996913    2.18843698752628    0.06277873277787
H         1.02437781770461    2.30917414449321    1.64890972845883
H         0.92202315149626    0.64349373549566    0.82541753238560
H         1.70748409870442    3.53662082171050   -0.97806921959373
H         4.52243011787793    1.94177599808853   -0.71889353957355
H         4.25795517329044    2.72339303803655    1.80291526284030
H         5.89181739448969    2.86487944623938    1.13523076380213
H         6.69429892148819    1.37510527940928    2.65738418497866
H         5.96172706094300   -3.77055162088304   -1.68801937829631
H         7.05260698491622   -3.30285846005722    1.49667126234138
H         6.03669635657689   -1.66150237965600    4.06692964885873
H         7.35440445538391   -0.47984476845041    3.83163209515922
H         7.76293831131447   -2.05356867216076    3.51838949087437
