30
 energy: -48.310750368883 gnorm: 0.122629633776 xtb: 6.4.1 (79825abcba525fcdf90b791dcacef51065a7a4e7)
C         0.97599985004773    1.79337289822308    0.27770513153912
C         2.41294174174688    2.14576292994769    0.07051611735870
N         2.91334519148945    3.09152522343256   -0.64519044241611
O         3.23325427659707    1.20816733690806    0.58167813026925
C         4.62705182255930    1.35780370772447    0.26029672845680
C         5.31998352966484    2.21639769629400    1.31890664573394
C         5.87745838267773    1.17097869986990    2.30693617433337
C         4.99895376041485    0.92718825675288    3.45906253661719
N         4.14949959585108    0.59396388493029    4.17816559081174
C         5.95176118415139   -0.13738253717013    1.55666436256452
C         5.27058932117313    0.01594376806565    0.41380746947507
S         4.86549543736086   -1.27396561937010   -0.63880121463615
C         5.76638826628421   -2.61550863194968    0.00047527355913
N         5.87173041125140   -3.70516529714543   -0.67481541434806
C         6.36257693051666   -2.49616311919724    1.34643377868204
C         6.54746275393506   -1.36851234870184    2.05781132344379
C         7.10997473878319   -1.31209070517438    3.45280683211284
H         0.67721938710082    0.99477294893764   -0.40593001586181
H         0.44685232090188    2.74939769153171    0.23685058701985
H         0.77999702117614    1.45182525877038    1.29803308461944
H         2.17195447725401    3.69093978404285   -1.02398419428416
H         4.76838462089245    1.79500841405823   -0.73541178935331
H         4.69060471302580    3.03871997919539    1.68109117600396
H         6.12803222928957    2.67337499664081    0.73310300669604
H         6.83990673230214    1.59056028807503    2.62706952133746
H         5.27569476119792   -3.88697076349245   -1.49221792089694
H         6.81180665889632   -3.44615346613572    1.61908849791386
H         6.16670970983625   -1.36408133507237    4.01014031559487
H         7.63451501657619   -0.36558432113919    3.61361003488934
H         7.64535734253086   -2.22461579695753    3.73303064281802
