30
 energy: -48.318899221300 gnorm: 0.119836488499 xtb: 6.4.1 (79825abcba525fcdf90b791dcacef51065a7a4e7)
C         0.87896832285883    1.66153873189124    0.64181162009545
C         2.24756383400263    1.91663892702345    0.09979848505179
N         2.59872430149698    2.89743439739264   -0.65639750688875
O         3.12404723914756    0.98321032662320    0.51665894330864
C         4.50387831461552    1.22417345378494    0.19054297652308
C         5.28036613830986    2.15864045234195    1.11889152970816
C         5.74976456325286    1.25801179576873    2.28010408152073
C         4.67353108465575    1.26878996169980    3.28020639168130
N         3.88566119550103    1.27651775907378    4.13397531673477
C         5.82789121909444   -0.09837499323786    1.62105255596242
C         5.19464866784079   -0.07903212570791    0.44111371967356
S         5.21785117722564   -1.29215347915152   -0.76874186714776
C         6.04876069920952   -2.62191269687352   -0.01950909026652
N         6.18975398715912   -3.77390422001614   -0.57403821249981
C         6.56062753116844   -2.38200475018240    1.34494138036100
C         6.52863347232867   -1.27688536278617    2.11274640189597
C         7.12552807381251   -1.28604876133035    3.49450197261536
H         0.71945290048538    2.18623388465077    1.58713615978417
H         0.65825134768747    0.59142455600683    0.59951181118713
H         0.23832928637096    2.15093056971877   -0.09725419909297
H         1.92150790242802    3.58857388102159   -0.99720078650997
H         4.62274706770322    1.45215235785371   -0.87550308929968
H         4.67643202526732    3.01653739228393    1.43949361535756
H         6.17948373005762    2.45673163593859    0.56421499074381
H         6.70479481514459    1.62589112398543    2.67686963775449
H         5.89028479962069   -3.81957522811820   -1.55622503239950
H         6.96048074152941   -3.25481134179724    1.85184932981078
H         6.57913917879247   -0.64517302651549    4.19721813533956
H         8.15162880548766   -0.90679759687633    3.50716479607668
H         7.06327685863222   -2.30642513305513    3.88542243382232
