30
 energy: -48.302450028122 gnorm: 0.126062085241 xtb: 6.4.1 (79825abcba525fcdf90b791dcacef51065a7a4e7)
C         0.83118318068869    1.52685351013316    0.11678134042846
C         2.23884636244456    1.93072884429052   -0.17864563939802
N         2.68115362238384    2.76264560206609   -1.05579135196303
O         3.08061231164214    1.28461836545291    0.65036345963545
C         4.49817854742146    1.36137843094333    0.42022762548002
C         5.27277700994217    2.20032715678254    1.43716183893873
C         5.91914606260923    1.18214979558981    2.39914071194195
C         5.04328122148776    1.05538370032735    3.57191112834612
N         4.13030367969231    0.88087043276428    4.26885961492389
C         5.94197484304465   -0.11570749506398    1.62759477443991
C         5.09648497408575    0.00138713008251    0.59557652052720
S         5.00239814609230   -1.19562077502776   -0.62682769832212
C         5.79141942624994   -2.57343571251898    0.07963631060247
N         5.98620414363815   -3.65716801162690   -0.58523161526432
C         6.52149104621196   -2.45052997518148    1.35759491615674
C         6.59489360763246   -1.32945677255180    2.09897469907388
C         7.29494958040585   -1.21437137725343    3.42648838697268
H         0.30483977675058    2.20974397192625    0.78835553315341
H         0.65738727938290    0.62485597966378    0.70994661696106
H         0.27148231829460    1.45951253179064   -0.82041723375548
H         1.92598270668441    3.21040457582952   -1.58651868506015
H         4.53465695468530    1.75220188110194   -0.60372780437572
H         4.73099170413439    3.06308080084269    1.84414353036834
H         6.04052896965487    2.72796537672778    0.85656585715836
H         6.95750199242871    1.41328873638375    2.66975603430916
H         5.50089460415404   -3.56164345188970   -1.48623566585949
H         7.19568985806672   -3.29927407618842    1.41857867419217
H         6.74293088142695   -0.40401169825500    3.91808282863621
H         8.35126706538741   -0.97102749954718    3.27866539541547
H         7.34543756870414   -2.11323823243188    4.04886391419814
