30
 energy: -48.304883246227 gnorm: 0.136113301900 xtb: 6.4.1 (79825abcba525fcdf90b791dcacef51065a7a4e7)
C         1.00408806064271    1.27077782024152    0.54820877797615
C         2.34157126077156    1.50628448548292   -0.07435312360866
N         2.69103418065526    1.70459328745534   -1.29732290821555
O         3.28156795965137    1.60491882633670    0.88479349014546
C         4.67893227107127    1.59199929205019    0.54486008632515
C         5.55672142840463    2.26123116661467    1.60297531867839
C         5.84997824763817    1.14232785476482    2.62372860502821
C         4.71024630833697    1.03256784710693    3.54436054886864
N         3.68125084668078    1.17651401190601    4.06413734195020
C         5.77797722825727   -0.09238958042457    1.75739925507235
C         5.12800773519092    0.16664189325263    0.61544115404763
S         5.01362308428831   -0.78139379228845   -0.80726641396962
C         5.87855944265416   -2.18875866896900   -0.26760987900050
N         5.93834442154801   -3.29560966643188   -0.92012253620446
C         6.45376183211305   -2.31916184004834    1.08643067137098
C         6.44313903919421   -1.35925359161837    2.02998796368832
C         7.08787455245614   -1.50024991947601    3.38278202158747
H         0.27181434754097    0.74364420442963   -0.06847105672635
H         0.59730101105396    2.14425000735586    1.06514227546255
H         1.21174484205037    0.61905479985655    1.40160012831823
H         1.92192902730830    1.47273916939025   -1.93541666632282
H         4.86720614631682    1.95371066059191   -0.47311644039539
H         5.09565739291161    3.11561036291863    2.11382306243044
H         6.45355274232597    2.66603065750815    1.11638737708861
H         6.69783000758817    1.33127372341728    3.29476343785612
H         5.78236690651206   -3.12780325212575   -1.92210587525384
H         6.97970145471385   -3.25248239254874    1.26229956433768
H         6.51832576779512   -1.04073748071772    4.19981019921585
H         8.04573933057088   -0.99808633790957    3.21785380238193
H         7.32974124897977   -2.52513665237901    3.68105981946316
