30
 energy: -48.308458889628 gnorm: 0.131159786227 xtb: 6.4.1 (79825abcba525fcdf90b791dcacef51065a7a4e7)
C         0.99383544342066    1.71844640411054    0.06305412884007
C         2.40882240177888    2.18937854185901   -0.02606855546563
N         2.85928722117524    3.27939665506173   -0.54186674061719
O         3.13167082669390    1.17915172633791    0.49375515708982
C         4.55475616876095    1.25000067857022    0.29841649816168
C         5.27885511314042    2.14194828102501    1.30742747198942
C         5.88388318434029    1.22392290744331    2.38957898342044
C         5.17903140205834    1.21009545776347    3.67860655102109
N         4.36694890450234    1.10522442825876    4.50276924567486
C         5.82974781219629   -0.10293357766083    1.67071943402831
C         5.12898643110131   -0.11204681003972    0.52945855340655
S         4.87878260822121   -1.27958085980295   -0.69944934733015
C         5.73509683426452   -2.62661262694922   -0.01224388272316
N         5.77858404260613   -3.73195895387530   -0.66858563836604
C         6.39635775147422   -2.46204620855310    1.29807687376174
C         6.45658654414214   -1.35732442489562    2.06475759753982
C         7.14242808055640   -1.56130443104145    3.38900423755313
H         0.88277599984467    0.99606427102720   -0.74948418603672
H         0.23849994356176    2.50409422168269   -0.02568929961335
H         0.87450830513270    1.12238400782932    0.97223600545481
H         2.10014019947537    3.82404476107613   -0.96553754828827
H         4.76538879541916    1.64674699845160   -0.70197574088694
H         4.63956248691746    2.90738506308845    1.76450595836879
H         6.11290784728092    2.61728715155923    0.77512506271170
H         6.90668693271136    1.45034269928428    2.71737079566434
H         5.48892638116968   -3.77183789493457   -1.65396206091779
H         6.83753320276060   -3.41898137820875    1.55936007984552
H         6.44724396677438   -2.17378898323323    3.97607686628879
H         7.36726401351913   -0.62623150247992    3.91050393142187
H         8.12831796868042   -2.01425635482602    3.24506797266389
