30
 energy: -48.311416024861 gnorm: 0.121850943593 xtb: 6.4.1 (79825abcba525fcdf90b791dcacef51065a7a4e7)
C         0.89494174660649    1.31889865729557   -0.12883552505391
C         2.23785362949948    1.97333299002809   -0.14337501696523
N         2.65355888091668    2.87799611688147   -0.95938946220088
O         3.10197489417181    1.35245051053251    0.68190319904096
C         4.51891414486935    1.59845013544319    0.69267276531041
C         4.98523029970510    2.14110557188655    2.04399332562705
C         5.63461828133392    0.95356345121384    2.78420977393013
C         5.01804334843202    0.30659584635825    3.95034337050913
N         4.59477470950291   -0.12165033421664    4.94390711992209
C         5.79608723547580   -0.08162692470404    1.69676024044655
C         5.23601478109258    0.29434640640425    0.53978624017598
S         5.25907304960936   -0.65339604172907   -0.88752062438128
C         5.78388357267129   -2.20805948164993   -0.31514357450886
N         5.83925153552978   -3.18547273400624   -1.14944799434673
C         6.39357441897675   -2.34463551227174    1.02310627184386
C         6.46683780636167   -1.35326839351617    1.93066385571705
C         7.28147078048988   -1.57899280965739    3.17607030070762
H         0.95165681386560    0.30001658195728   -0.52005333605391
H         0.30764937265437    1.90567436102253   -0.84047556565525
H         0.42977315506879    1.36782228265180    0.85978254586982
H         1.91450951501001    3.37210311277098   -1.47135335109187
H         4.73686049877431    2.31925939742647   -0.10450460459283
H         4.20416208984362    2.59561996176769    2.66597273592314
H         5.82542105268784    2.82794364069909    1.87885755570201
H         6.64123528437857    1.21525576817334    3.13503771080793
H         5.38038252252134   -3.06753446746831   -2.06158196502300
H         6.90796348382502   -3.28607511628897    1.18961444504604
H         8.34617614115140   -1.45705105378624    2.94239264820101
H         7.21044420521377   -2.53310933037124    3.70662792585196
H         6.93874209982906   -0.94462477191647    3.99946340605619
