30
 energy: -48.315186215799 gnorm: 0.120469075124 xtb: 6.4.1 (79825abcba525fcdf90b791dcacef51065a7a4e7)
C         0.93863919841260    1.59882475842718   -0.39903276765020
C         2.38888912003119    1.95370346276165   -0.34664678375310
N         3.09817832774310    2.48295739322429   -1.28147559358815
O         2.93298863168687    1.57763540458446    0.82630389234623
C         4.35779175197352    1.64343766797553    1.01057210582386
C         4.68813531296539    1.84079895445680    2.49040811052641
C         5.76487067360672    0.83810264731443    2.95422113300375
C         5.49347776437011    0.11570739348234    4.20445722693044
N         5.36160067684455   -0.52660892186906    5.16349749900661
C         5.78762181940968   -0.15758631127070    1.81917764938143
C         5.03335308056755    0.32196809846110    0.82181503325170
S         4.89991843697867   -0.39051151638945   -0.73077001494888
C         5.72512000435106   -1.90917289180360   -0.54985573204257
N         5.97797839879964   -2.67634370229093   -1.55084410318748
C         6.33447487565813   -2.28303129063721    0.74250842956075
C         6.43178309108493   -1.46394669233919    1.80621355090076
C         7.11683039584194   -1.90226655598183    3.07278431446392
H         0.47407806479690    2.00615845687710   -1.30050427021034
H         0.40883953914803    1.97417303169462    0.48078289564696
H         0.87854788927732    0.50690447106097   -0.41452958883511
H         2.61155504040717    2.56161437867259   -2.18117196886156
H         4.71899527084899    2.42402579381713    0.33029821492456
H         3.74279586657010    1.82654777922256    3.04686071963789
H         5.05707626603145    2.85829354854809    2.67350420732490
H         6.69559528323979    1.40408067782926    3.08935612633189
H         5.68472082341927   -2.36328054602427   -2.48489444436842
H         6.88954426700649   -3.21570002800636    0.76813272870576
H         7.77523345132189   -1.09713417575255    3.42112295850414
H         7.68435108184421   -2.79157781829076    2.78309437239518
H         6.56070117030876   -2.19767109916850    3.96794820810434
