30
 energy: -48.312624976587 gnorm: 0.116671489670 xtb: 6.4.1 (79825abcba525fcdf90b791dcacef51065a7a4e7)
C         0.92713901069742    1.39100904232521    0.06163237834760
C         2.36716165292621    1.77824387556990   -0.02942801943800
N         3.03169946483332    2.09034046455404   -1.08682625277173
O         3.02109780803643    1.46987129153348    1.10659953717916
C         4.44269530105110    1.64973406989252    0.98388606768341
C         5.23334014470005    2.04148366688291    2.23264782647481
C         5.73033468229555    0.75517523344505    2.92423187190065
C         4.81664690161550    0.33270670832134    3.99441610573470
N         4.34481944151967    0.09426169206116    5.02894154596058
C         5.77206010966194   -0.19941629382906    1.75493642721446
C         5.08340029554279    0.32158946404444    0.73125355695978
S         5.12311327464367   -0.31976981417747   -0.85715240299332
C         5.94019479141623   -1.84295996937849   -0.67745952027151
N         5.95171954490128   -2.66425273689001   -1.66731380954134
C         6.57713586046860   -2.19362489568899    0.60808658106474
C         6.49938977340224   -1.46126998617019    1.73478480663618
C         6.99716602024972   -1.97558032127558    3.05891444828920
H         0.23298634857847    2.15481300165919   -0.29773408102137
H         0.64467174791771    1.22454169413938    1.10477689088936
H         0.66587481215230    0.51683966037115   -0.54145131471310
H         2.41287706212185    2.27036302861472   -1.88500757522099
H         4.47765455644691    2.34956731855657    0.14034018951372
H         4.71296090387935    2.62654475927439    3.00103460130696
H         6.09600371723116    2.63122001501613    1.89655340815004
H         6.67119120448231    0.84636381552071    3.48218755828295
H         5.42801462369059   -2.29379952821132   -2.47040543870834
H         7.18342433599756   -3.07977094146818    0.44749679450967
H         7.94120153514989   -1.48847397522208    3.33203878027610
H         7.20382287067558   -3.04360507298285    2.94276545441844
H         6.27702213300144   -1.79747288243893    3.86360848070603
