30
 energy: -48.310279149291 gnorm: 0.124052845549 xtb: 6.4.1 (79825abcba525fcdf90b791dcacef51065a7a4e7)
C         1.00464017035796    1.66669231061137    0.54633965301530
C         2.38689698265888    1.56229835233766   -0.01077437990858
N         2.82534739492434    1.61885116289090   -1.21976935115583
O         3.21324359394255    1.65547130651398    1.04835491508648
C         4.64893290787607    1.71018768145689    0.98392631554043
C         5.22765064662767    2.18355839625327    2.31771752513234
C         5.71205239386265    0.83283297655443    2.88408962008393
C         4.64505786418175    0.17366111828892    3.64934420408630
N         3.76685421629478   -0.36121749741198    4.19006903946486
C         5.88777014620989   -0.12620643721047    1.73100472737225
C         5.23642681610307    0.37025125748316    0.67133124471152
S         5.02772066424476   -0.33509425770054   -0.87620939171878
C         5.89844177853179   -1.81572852136074   -0.61241581679219
N         6.24826254571748   -2.56598761912982   -1.59689688234122
C         6.40600254116712   -2.23008777950088    0.71120697305333
C         6.44388851944505   -1.46945142934236    1.82108728762525
C         7.13639706257475   -1.88275336496741    3.09200399166217
H         0.59336744550420    2.66952039298683    0.40641379710366
H         1.08059334195179    1.39871513440339    1.60372745249899
H         0.33651629010341    0.94958036426120    0.06105419963433
H         2.06394827358941    1.60495069733022   -1.90717088669968
H         4.89649452499703    2.42816016467342    0.19285919050033
H         4.60735968196114    2.85085116088678    2.92883846308328
H         6.14928209039531    2.74028800407795    2.10421221991079
H         6.65656545030331    0.92391857386835    3.43584996902944
H         5.87317531755589   -2.41462965463546   -2.54180902058724
H         6.72490198278381   -3.26748323589288    0.73847469858466
H         8.15774870675603   -1.48346849784095    3.06998125207387
H         7.22787628177206   -2.93665644492792    3.37092048822147
H         6.54089116978186   -1.39980079065877    3.87302354718586
