30
 energy: -48.311641576676 gnorm: 0.130506581028 xtb: 6.4.1 (79825abcba525fcdf90b791dcacef51065a7a4e7)
C         1.20444366805610    1.33532473799961    0.59988004947063
C         2.52090751910745    1.46235373038923   -0.09488223401461
N         2.72179551983320    1.28567280882684   -1.35406201069668
O         3.53644064456574    1.86159485814167    0.69415756608871
C         4.86939171603223    1.62011890139605    0.21116732238444
C         5.81268380249923    2.36343073245181    1.15757138141279
C         6.04468523419372    1.36858895002580    2.31357601482561
C         4.91137184177631    1.61440639942864    3.21567019370176
N         4.01030847515474    1.80053077763297    3.92500977966574
C         5.83734218369574    0.03101783180844    1.64413564625771
C         5.14711517943958    0.17992564049122    0.50613767120854
S         4.79165487931823   -1.12305759954844   -0.54829832032817
C         5.50946517667373   -2.56957088717445    0.09386028313786
N         5.81317391532378   -3.65551350495589   -0.52497390875893
C         5.94796352547544   -2.43215289426860    1.49747137474410
C         6.15897380467377   -1.28738133387684    2.17334849049335
C         6.88742561178030   -1.35822300175904    3.48862608046015
H         0.77655966462945    0.40932256455243    0.20767612126780
H         0.59740304224809    2.22874721157851    0.42974016674357
H         1.40400273014088    1.26868526175235    1.67313509845061
H         1.80844596356174    1.11084818467848   -1.78727288112621
H         5.04644866132297    1.97169131676482   -0.81235901377080
H         5.35161191038863    3.28076368253365    1.54412316941223
H         6.76843913837500    2.63794360827652    0.69269363191629
H         6.93700188652467    1.31373519606315    2.95044572099691
H         5.57803944788299   -3.68935469462772   -1.52498647531344
H         6.32360744019408   -3.36365315071020    1.90957396516736
H         6.91952416942716   -2.40081197148241    3.82781700616423
H         6.41446083764649   -0.68033801132118    4.20532042839972
H         7.96301351872051   -1.18090326633983    3.39100259455005
