30
 energy: -48.310556137186 gnorm: 0.130941687135 xtb: 6.4.1 (79825abcba525fcdf90b791dcacef51065a7a4e7)
C         1.07317492293728    1.69789322647294    0.07580689417399
C         2.50567686967027    1.54371452095461   -0.31925654553643
N         2.86506743935587    1.28381575122098   -1.52772535139902
O         3.25317684958501    1.65296619627060    0.79545983334259
C         4.66682460315119    1.61049779779935    0.53441364468884
C         5.40013604412259    2.33752534339207    1.66210075556993
C         6.00652374492954    1.23375999712243    2.55309877038895
C         5.29601760022886    1.13293043966325    3.83513376512466
N         4.64828884280296    1.00444823591537    4.79098932053889
C         5.79196625046198   -0.02176290578244    1.74200990079756
C         5.21634815129488    0.21916469517756    0.55700202964147
S         4.94549241176625   -0.87827590848970   -0.73071440627459
C         5.56363307875539   -2.37740023953230   -0.10577573590219
N         5.43452102803337   -3.47842079226605   -0.75811764324153
C         6.08970932784048   -2.43965230448476    1.27286745868162
C         6.22036313658587   -1.37181992880574    2.08187960999712
C         7.03045222851862   -1.41424947866533    3.34977985315722
H         0.40781498770018    1.31834088716530   -0.70369604810873
H         0.67659354680637    2.67616551615852    0.36103688125857
H         0.95558496552608    1.12470512510867    0.99980312432658
H         2.12533563484157    1.13189429965627   -2.22210236902275
H         4.83997336320224    2.03974185936749   -0.45973293195041
H         4.81151366747308    3.12336736838630    2.15147308440139
H         6.28535552512319    2.82008918390307    1.22798617392834
H         7.08417029821353    1.38993324685735    2.69140538717872
H         5.09667971726468   -3.33807346647373   -1.71865107039602
H         6.35231832666525   -3.43428958512683    1.61980088832229
H         7.78694083825190   -0.62774250768783    3.23930669493241
H         7.57229808234977   -2.35835009340868    3.45910328254521
H         6.35683358311954   -1.38064736161651    4.21173738463906
