30
 energy: -48.309065106440 gnorm: 0.122378190712 xtb: 6.4.1 (79825abcba525fcdf90b791dcacef51065a7a4e7)
C         0.86088282641883    1.51726905920784   -0.07515839431342
C         2.32362403207147    1.59030856498862   -0.37005060575027
N         2.89039818575523    1.90196451257639   -1.48303912075562
O         3.02244483883411    1.39354044985899    0.76406426483681
C         4.44633170744642    1.58995873498851    0.71595310864316
C         5.04613300977326    2.21258623677583    1.97712967213451
C         5.88397548028537    1.13711197640854    2.69911065254901
C         5.26982882214035    0.69610475734214    3.95884704955171
N         4.87567823602683    0.44423381345917    5.02229727833695
C         6.00394658968465    0.03414698409991    1.67475087305043
C         5.12118998016693    0.25493398748720    0.69209131716317
S         4.90428965010932   -0.78007696714792   -0.65611448701373
C         5.71713294273379   -2.25504803753827   -0.22743500728433
N         5.74525798409763   -3.18524422456176   -1.11535964873870
C         6.52991870533736   -2.30962545752574    1.00451027785865
C         6.53223267217701   -1.30449292344018    1.89979808842091
C         7.17047919339259   -1.50041222650257    3.24882462999283
H         0.46010444422000    0.50401260527636   -0.15928154982764
H         0.32671190319824    2.13295903720005   -0.80401838237285
H         0.85740875295054    1.95040147789320    0.92909519408589
H         2.34586250918294    1.88003147197898   -2.35220110262794
H         4.61574694668493    2.16479468507776   -0.20242615450788
H         4.29626112653200    2.58131037392269    2.68793480431629
H         5.68706742291973    3.05629135553827    1.69024711216722
H         6.86776249531045    1.55442075632877    2.94982439125908
H         5.25632505394131   -2.97433469639300   -1.99451853457973
H         6.91270519171402   -3.31423569987552    1.15571332875017
H         6.63998940821952   -0.89932704727439    3.99738974950666
H         8.19348504130184   -1.12311041270357    3.33813801562732
H         7.03745094227918   -2.54248599857071    3.55582251443279
