30
 energy: -48.306229084993 gnorm: 0.134536160020 xtb: 6.4.1 (79825abcba525fcdf90b791dcacef51065a7a4e7)
C         0.93206364277993    1.73458693963530   -0.70049217233395
C         2.37964180818272    2.05333512372944   -0.51387740528550
N         3.15510541545240    2.75616824183747   -1.26340232758290
O         2.93334826252569    1.28368817973133    0.44233255991900
C         4.33436709989996    1.43878525679048    0.72770909050960
C         4.51938118024371    1.87596251553476    2.18120101746850
C         5.75788365404060    1.08895214125874    2.65723435546979
C         5.65436281288081    0.63170328968100    4.04964457899421
N         5.29461309743191    0.44800372829754    5.13893548431020
C         5.84571505845639   -0.07836806592773    1.70335437983297
C         4.95714682304846    0.07854893468945    0.71368296788920
S         4.75217624129667   -1.03900412815741   -0.56889823772211
C         5.52035286589797   -2.47524617952368    0.03701712589498
N         5.49335877777352   -3.60724126124076   -0.57316694188952
C         6.39639339845607   -2.34640816110113    1.21906718732552
C         6.73357239754673   -1.22029492405794    1.87482351699194
C         7.76393228049529   -1.17703100850836    2.97122780431000
H         0.91137183547203    0.70635213129535   -1.07021326578557
H         0.43465164878520    2.39229791936943   -1.41857794835962
H         0.38355949390348    1.86438960694603    0.23675672556431
H         2.69214283708323    3.31356538983982   -1.98963698890200
H         4.80287906749587    2.07979922210415   -0.02870085448550
H         3.63755464899231    1.59018773980904    2.76790709232348
H         4.58044205662538    2.96964471925017    2.25238852909201
H         6.51718678360469    1.87780020888946    2.73481255811094
H         4.76706806129569   -3.68174352262622   -1.29663760198999
H         7.01410928155223   -3.22968421865813    1.34899066516353
H         7.56024116751948   -0.47795022398391    3.79151344235629
H         8.69226888580996   -1.10069509007214    2.39743473034869
H         7.90021230952318   -2.16977697911654    3.41139272333548
