30
 energy: -48.300671972981 gnorm: 0.144950771506 xtb: 6.4.1 (79825abcba525fcdf90b791dcacef51065a7a4e7)
C         0.94370822602582    1.30041939631996   -0.07410127945255
C         2.35442506220057    1.79213545392887   -0.07293986320011
N         2.76759680089567    2.69859588539302   -0.88824619145892
O         3.21767090445275    1.13353780603700    0.72351510052857
C         4.55706763743346    1.65541391428720    0.76835229840145
C         4.99717421249593    2.10400176407407    2.16229207130137
C         5.83751674998969    0.96350307891299    2.77300363714039
C         4.89982239978368    0.47455848000876    3.79293588805745
N         4.20606267965700    0.26707005828662    4.70143248680206
C         5.98775640796219   -0.03279524308889    1.64825677019248
C         5.40565107627782    0.44449873223211    0.54057009112259
S         5.13664147530649   -0.54319895337060   -0.83348938468096
C         5.77074173485603   -2.10142224385600   -0.39774059412081
N         5.64188851231843   -3.20499956743048   -1.04579929088807
C         6.50924940433402   -2.25863630811101    0.87158156472398
C         6.58748664102545   -1.34386089154144    1.85590971987705
C         7.20796037077970   -1.80067375588197    3.14894875764681
H         1.02949459353468    0.21960760003620    0.06328583527384
H         0.41134645825102    1.55041854842792   -0.99591524041281
H         0.47511063821992    1.59841517497392    0.86810668455778
H         2.08515440254478    2.96726594020746   -1.60555469386763
H         4.72001927832852    2.39393681657672   -0.02574407982838
H         4.00918034564824    2.20128436126511    2.62910412059151
H         5.43466789748090    3.10812199107660    2.08963741195951
H         6.77175288517594    1.25922631665145    3.26756556438472
H         5.29918460823430   -3.05734489308922   -2.00351047814310
H         6.94782999866418   -3.23307968327007    1.06324996398061
H         8.22974303855032   -1.40188498164595    3.14943702682294
H         7.31226824915054   -2.88929044140745    3.17908318733423
H         6.80536704146266   -1.30648793397627    4.03864586380500
