30
 energy: -48.313270011852 gnorm: 0.119837935133 xtb: 6.4.1 (79825abcba525fcdf90b791dcacef51065a7a4e7)
C         0.78039318073137    1.71551770684827    0.02020881109764
C         2.21830333040922    2.07937719709551   -0.15847721352353
N         2.79031282375231    3.07340851862221   -0.74312469658967
O         2.95728476570481    1.08456107398283    0.36833591673575
C         4.36707903506518    1.34843701426462    0.47415772016560
C         4.66694510880314    2.02973341485303    1.80978809142331
C         5.65264399438025    1.08312215342619    2.52547396133674
C         5.24402577542087    0.64545703884658    3.86714445240907
N         4.96021019839070    0.49128760798914    4.98311961689006
C         5.75663267195320   -0.13710500482199    1.64203190796543
C         5.13907954757190    0.06691403206527    0.47129269083765
S         5.08854041254338   -1.04200122624450   -0.83396784528012
C         6.04645623101449   -2.39224782024094   -0.30552542447752
N         6.44124872163616   -3.43846042881198   -0.94117013790842
C         6.51983401049073   -2.33682339447615    1.09237664578701
C         6.42526841637377   -1.37263449521059    2.02684663659792
C         7.11420216379814   -1.48432946474554    3.36045457499733
H         0.14951017199377    2.60092098207936    0.13172709796130
H         0.74233219274368    1.00325379441188    0.84899170615541
H         0.51031124043829    1.28927172154272   -0.95010615674028
H         2.18051108375473    3.86686299669833   -0.96898868675002
H         4.51621023399489    1.98617342848536   -0.40539359557994
H         3.77072709583589    2.01923356466967    2.44239562948327
H         5.10605871162119    3.03507653767689    1.77235412529311
H         6.61011334386911    1.60430756349526    2.65376702441175
H         6.22879301752636   -3.57870449688531   -1.93698777084315
H         7.07536814015638   -3.25681179436069    1.24610622636441
H         7.77486244129708   -0.60883813901117    3.37120104024324
H         7.73622127440439   -2.38036381719614    3.44465180864907
H         6.42388540555164   -1.40085949484707    4.20565129524522
