30
 energy: -48.303309146330 gnorm: 0.129400517860 xtb: 6.4.1 (79825abcba525fcdf90b791dcacef51065a7a4e7)
C         0.94825137461873    1.77224678722721    0.80334604921799
C         2.21935743224396    1.92238251943111    0.03285485877112
N         2.43735131960987    2.81378378863459   -0.86991213775948
O         3.12187855158568    0.96968907677503    0.33470844608141
C         4.50950865910389    1.32079710336451    0.19487107493893
C         5.07388952850987    2.15467843310323    1.34557047497003
C         5.66950260506034    1.14658928770323    2.35000204253907
C         4.82540392146541    1.01187166966068    3.54496977334309
N         4.32575128957727    0.76172001470621    4.56354301901594
C         5.87139943177335   -0.14786990307322    1.59910198187398
C         5.26599203513585    0.05001076370431    0.42098862478634
S         5.39011694808864   -1.07654879850587   -0.86408292964576
C         6.14839044840169   -2.49948804361257   -0.21578887204552
N         6.17097846479598   -3.59590085634967   -0.88797549954438
C         6.50257924603595   -2.44714587896966    1.21707510482161
C         6.43428892952068   -1.40670286079734    2.06833993029264
C         6.91552793303052   -1.40793454826162    3.49453175130738
H         0.20066045742664    2.30649901518735    0.21167803702903
H         1.10130172470578    2.31228817594202    1.74173855542874
H         0.73967557229465    0.70172099043569    0.88465831175926
H         1.83066149605139    3.62271354747262   -1.04312534674701
H         4.63051789509787    1.80383445449293   -0.78216016886141
H         4.21369635927038    2.64538449619744    1.81757105021584
H         5.79031097578864    2.91292224954384    1.00389302749353
H         6.64644056934403    1.47373783476015    2.72869313527364
H         5.99467375239336   -3.40787155662030   -1.88297309708399
H         6.70971805348552   -3.43469310636827    1.61766666369265
H         5.95160095968086   -1.50325299676414    4.00914980138738
H         7.38216191045126   -0.46246308353577    3.78644089134526
H         7.60076139122278   -2.21407788990136    3.77462098296992
