30
 energy: -48.306675576389 gnorm: 0.136404194104 xtb: 6.4.1 (79825abcba525fcdf90b791dcacef51065a7a4e7)
C         0.91672492658771    1.63267481072654    0.12977660961104
C         2.35415403232959    2.03793257915740    0.09141330942263
N         2.73163463331262    3.24536840801217   -0.14673146941571
O         3.16767274381196    0.98907389219375    0.31805738784332
C         4.56941662505545    1.26514493362352    0.15298893918390
C         5.13677954478104    2.16687149667933    1.24979410002967
C         5.67401797479938    1.22282959891848    2.34525808027565
C         4.65660049342958    1.12739837791118    3.40088776533516
N         3.73735970010700    1.14940939738176    4.11098073438525
C         5.89066103082457   -0.06220736279555    1.58237937508737
C         5.28921571002527   -0.02548943349741    0.38632687372406
S         5.15192089546393   -1.31318804907993   -0.73569584347382
C         5.89603221606829   -2.66518377031293    0.06331982825513
N         5.82880205201694   -3.91293336795717   -0.24174950366055
C         6.62795334429938   -2.43727666120592    1.32571382958531
C         6.61960520406197   -1.25971729792373    1.97772730989178
C         7.43321436581895   -1.24144072003714    3.24395080458132
H         0.36046514140217    1.65777794190330   -0.81061349346145
H         0.41839257611404    2.24201252525435    0.88873775966543
H         0.92722938646044    0.64357008840839    0.59636265502228
H         1.89202615163822    3.83176840044130   -0.20702542742185
H         4.71609179480022    1.71313728963235   -0.83713614558464
H         4.44728394697983    2.83068699608037    1.78594157207266
H         5.98913130288802    2.59478387371613    0.70635655394378
H         6.60877534372367    1.54971743324669    2.81877048255388
H         5.16397751145814   -4.11910079992083   -0.99803114957558
H         7.06990968019788   -3.36905679939770    1.66496313095882
H         7.37965202019271   -0.32535353523072    3.84477352174078
H         8.49578777213042   -1.27967942172429    2.98636565455758
H         7.23510004325013   -2.02988595550641    3.97673101618657
