30
 energy: -48.312640682002 gnorm: 0.141332151509 xtb: 6.4.1 (79825abcba525fcdf90b791dcacef51065a7a4e7)
C         0.83699426986200    1.78463086328213    0.48816815494917
C         2.24012582116858    2.09307151959177    0.07829713766204
N         2.75641804380958    3.15670004220476   -0.43086151176247
O         3.05333602836023    1.02902711461618    0.21895077807949
C         4.47344978717944    1.14369108463103    0.02279313501943
C         5.08948016039670    2.08412025933411    1.05917751930230
C         5.67725638627149    1.24618167886248    2.21341302896990
C         4.65702170833918    1.20061826210977    3.26965383771710
N         3.97671866788041    1.15015220853679    4.21005858614123
C         5.84702275669285   -0.09975447504329    1.55018352590751
C         5.17771693265065   -0.12404598181542    0.39041375534522
S         5.27189741609826   -1.39087103641186   -0.75947184529244
C         5.99751137350567   -2.69472021229842    0.13130413369267
N         6.11091903795100   -3.91148099570324   -0.27006620473630
C         6.60045926976327   -2.45722332710699    1.45845818382514
C         6.55771671557991   -1.25952793687352    2.07126823084916
C         7.25883003001812   -1.18627613046641    3.40118933607171
H         0.82934445139418    1.36419697363652    1.49691266513168
H         0.40323455633945    0.93886323772242   -0.05236791664011
H         0.17854696938794    2.65719773375545    0.45330781303073
H         2.19414713309468    4.01151299253005   -0.35610217140541
H         4.65950497400141    1.41654823010410   -1.02290801199820
H         4.42134845455569    2.91137106417370    1.32892822349805
H         5.91911741286796    2.68365984583882    0.66270405774066
H         6.55068973940790    1.64749810190025    2.74341331159460
H         5.64021571658766   -3.98970629616100   -1.18043854167184
H         7.08778815449633   -3.35759612901045    1.81966324384164
H         6.83206411788158   -0.41840303135174    4.05793460755437
H         8.31765385902137   -0.92752056632342    3.30731593315551
H         7.20703585426639   -2.13913246728584    3.93714099133830
