30
 energy: -48.316734270817 gnorm: 0.131631952093 xtb: 6.4.1 (79825abcba525fcdf90b791dcacef51065a7a4e7)
C         0.84780514761568    1.54524696154344    0.22081508027545
C         2.27516278316770    1.96930984483557    0.09945251299529
N         2.85077700398052    3.11022671776650   -0.05573371775719
O         3.16825863220879    0.97077325638371    0.23579487705827
C         4.57837747924169    1.18958009239678    0.05680588757537
C         5.24348017901100    2.18897834428798    1.00381933656574
C         5.69396405224956    1.29627258580280    2.17856277752601
C         4.65933423556001    1.32486349466468    3.22131059415792
N         3.90622585931909    1.36592603597395    4.10497438942178
C         5.82181749668048   -0.06246222191808    1.53224162099308
C         5.16514882653432   -0.15091202816682    0.36837357311604
S         5.15522075833684   -1.49682280373698   -0.69199331513893
C         5.89182391404573   -2.77218404111231    0.23044339416756
N         5.96131191861380   -3.98862543014190   -0.18175546386094
C         6.53729862847067   -2.38285197037060    1.50051091742106
C         6.55316116538804   -1.18233044088761    2.10906123087769
C         7.34390588214293   -0.96037580676302    3.37043926289796
H         0.21420762527597    2.41893385961381    0.04872776955550
H         0.65109008681754    0.94947326578343    1.11636323347007
H         0.59989417150143    0.87398720829460   -0.60628317407306
H         2.19158231174050    3.89235117428486   -0.13438742289860
H         4.69633502474645    1.42637382977948   -1.00741829689028
H         4.55183530892250    2.94295082730097    1.39962501930273
H         6.01887010187856    2.74098942102161    0.45701855748118
H         6.59820737389008    1.58919363228695    2.72754562836052
H         5.52229582860638   -4.10596767122793   -1.10368510216247
H         7.02088937722637   -3.24076330017198    1.95741106654966
H         6.65073968843273   -0.99410144626910    4.21982477876100
H         7.80851913807371    0.02906172328301    3.41541040098246
H         8.03854485526748   -1.78219518199775    3.57031815368307
