30
 energy: -48.299211983272 gnorm: 0.140522746864 xtb: 6.4.1 (79825abcba525fcdf90b791dcacef51065a7a4e7)
C         0.97886915023993    1.57636915940383    0.53797310736842
C         2.33233405663279    1.49418863341410   -0.08915298195775
N         2.78325030008516    1.14699804940572   -1.24381269338603
O         3.26433653205758    1.51307152685269    0.88259779846847
C         4.62058656317630    1.69627150943788    0.44058843773168
C         5.31030102979986    2.41396285356013    1.60128048831409
C         5.81512366662141    1.26162834574025    2.49411906764072
C         4.98525254911685    0.91885186569591    3.65705394254031
N         4.41019610348528    0.53260669208290    4.58970865531590
C         5.82899037709291    0.03708574277515    1.61063677445394
C         5.20112284324662    0.31756247693003    0.46140176386323
S         5.11261532121795   -0.72328035003795   -0.89681948387065
C         5.81877814236814   -2.15992786209633   -0.22050744087876
N         6.08933083782666   -3.24037037748935   -0.86386687420481
C         6.35790554657477   -2.30731195088735    1.14657272403183
C         6.25201016657911   -1.29350943917313    2.02567891605877
C         6.75869761065097   -1.47790790727772    3.43098338665247
H         0.40075377529720    0.64925432091179    0.51288628893621
H         0.53051221585395    2.37203828375009   -0.06330578901242
H         1.09918581642991    1.78734469822383    1.60434745673145
H         2.20060156474383    0.96518871358947   -2.06837835451163
H         4.61827513988191    2.13818883699244   -0.56303604498584
H         4.64726961323416    3.08921138643049    2.15620213030079
H         6.19861712017076    2.96633566514427    1.26854086383999
H         6.84548797091359    1.48991030643595    2.79590980188583
H         5.66206160328908   -3.37692978509347   -1.78866475344724
H         6.88617886870374   -3.24654019722311    1.27850909818226
H         5.90097425852757   -1.54763227812015    4.11107287320693
H         7.44113778320282   -0.67544484703998    3.72628485375297
H         7.16749405753428   -2.49181924471313    3.37872216332330
