30
 energy: -48.303992367207 gnorm: 0.140413747324 xtb: 6.4.1 (79825abcba525fcdf90b791dcacef51065a7a4e7)
C         1.09605363031433    1.31701281530790    0.51797435029568
C         2.50086792328165    1.38284516991844    0.01391986342435
N         2.91107819774380    1.08027045455063   -1.16814692010961
O         3.37948192693854    1.81692274850069    0.93744508975462
C         4.75423984903571    1.74458009101700    0.52132509923843
C         5.54302621908051    2.36542887847325    1.67473560678856
C         6.00458471249668    1.22429221571838    2.60460244505673
C         4.95740880298153    1.01243183597398    3.61313461165262
N         4.27640256727124    0.64186711093824    4.47837005263307
C         5.82215839982400    0.06097471247299    1.65927135246648
C         5.27914797891832    0.34459513927440    0.46833680692603
S         5.02661120641227   -0.66660888978832   -0.89167933967888
C         5.68898526980433   -2.17260190571669   -0.33197797214434
N         5.51751089415184   -3.26039050688329   -0.99664227752487
C         6.30052063442011   -2.19273446990237    1.01223472258348
C         6.30795025616673   -1.27102019430300    1.99316522694060
C         6.67108839588992   -1.60690899788680    3.41475765024586
H         0.55629405790427    0.42140493584020    0.20027199120943
H         0.53744122748197    2.02915782894788   -0.09558189800936
H         1.09542998396940    1.54850858696642    1.58687581892112
H         2.18770043281575    0.72355663845949   -1.80212055963419
H         4.90762744723070    2.23885216829275   -0.44548704998731
H         4.93054249529592    3.11677498841439    2.18840085344597
H         6.45700540314007    2.91600626781805    1.41696933674784
H         6.99975464573037    1.28609954081682    3.06357691404687
H         5.22754179312376   -2.99481429585547   -1.94629789254255
H         6.58187856280760   -3.23465400530751    1.13000998750318
H         5.74704854871615   -1.76443916044353    3.98432516519032
H         7.18232699091434   -0.72463985068591    3.81112965286651
H         7.44006865631962   -2.38536450095576    3.39155516277369
