30
 energy: -48.310296888149 gnorm: 0.127761983208 xtb: 6.4.1 (79825abcba525fcdf90b791dcacef51065a7a4e7)
C         1.04571494736297    1.56885448995710   -0.43885458464657
C         2.52573232112271    1.68532055701871   -0.60586431503734
N         3.09528028264717    1.80821864592879   -1.75373930178537
O         3.12419572313100    1.60499067526390    0.59774418383071
C         4.56185274130803    1.60809532546649    0.55925649081494
C         5.09920256477751    2.22477144722308    1.85113832193242
C         5.96290917486132    1.20884260552678    2.62688371230257
C         5.59746581290823    1.00002399668927    4.03452188583265
N         5.10128384143483    0.96357544535988    5.08437664174389
C         5.79387421613178   -0.04131871514604    1.79696704671282
C         5.06763877907305    0.20709034265326    0.69946945172533
S         4.82933235326450   -0.92531348831336   -0.56418553915689
C         5.24174386777898   -2.46774145796981    0.12200152024220
N         5.10347002540187   -3.60111506719389   -0.47029126690989
C         6.07988117808120   -2.43944457049044    1.33773739840642
C         6.39282538367481   -1.34387888149723    2.05442337742738
C         7.46930519469227   -1.35044768081807    3.10645174162443
H         0.60402640828355    2.52430922350971   -0.14490536250605
H         0.91783079175134    0.87830194804232    0.39925784007745
H         0.64826561649190    1.07733265282477   -1.33136864266949
H         2.40405461459810    1.86516692426718   -2.50965376929594
H         4.96890479473018    2.12150313091872   -0.32010658411668
H         4.31786025059096    2.71270267882313    2.44690385125912
H         5.70559737275836    3.11580004769478    1.64307529349831
H         7.03520758466415    1.43758749408394    2.57499157304893
H         4.50358960737418   -3.65839670144132   -1.30295019072025
H         6.33986935635995   -3.44327771679909    1.65922576098868
H         8.09411133132698   -0.46795009746665    2.92236520610619
H         8.00128638501264   -2.30230355296956    3.19500070234117
H         7.09283675453078   -1.19813357413098    4.12278529350763
