30
 energy: -48.312656196351 gnorm: 0.126768915824 xtb: 6.4.1 (79825abcba525fcdf90b791dcacef51065a7a4e7)
C         0.87068178388872    1.63147270882522    0.48283630955821
C         2.26600894605714    2.11785904838359    0.26283981205977
N         2.61611815006888    3.28667066429005   -0.14753654825488
O         3.17903613404481    1.17228594697688    0.55534214407588
C         4.58269634219795    1.35298899968152    0.29954325019195
C         5.18994219025362    2.21178407427539    1.40937046607936
C         5.54495407864682    1.10343926197069    2.42200059728178
C         4.51609769004666    0.61891450703959    3.35221004492084
N         3.83827367842738    0.14934393595514    4.17060979917740
C         5.87103309601084   -0.11725940546371    1.59507552535129
C         5.30442489667482    0.04579886760524    0.39258099061985
S         5.32524249267841   -1.03942059906512   -0.93324617323790
C         6.03519711538322   -2.45040093654808   -0.20859528929869
N         6.02933313887016   -3.63429475075935   -0.71141453474108
C         6.74721806699733   -2.32185522059038    1.07895694660719
C         6.62111554035886   -1.31154605346843    1.95941739107014
C         7.20782127418688   -1.32876268920104    3.34545331540455
H         0.66749439797738    0.71380952081576   -0.07483547373063
H         0.15689092184371    2.30209495489864   -0.00339204681755
H         0.63052578840103    1.53523290015536    1.54547643073166
H         1.79149677443015    3.87366159531494   -0.31452141694520
H         4.61716971780413    1.80867101145276   -0.69731374207637
H         4.33455948335791    2.83864601926009    1.69021526322953
H         6.13073165036229    2.66605435056380    1.07248685971383
H         6.32373495985213    1.36770100830127    3.14898544514221
H         5.68770365472213   -3.64481462052134   -1.68076339701433
H         7.17853027520823   -3.29096037958509    1.31011615626501
H         7.66046280331755   -0.38957864526709    3.68621939219538
H         7.95658341771919   -2.11835231453072    3.45849306403540
H         6.40442311495794   -1.63973489097381    4.02051601897455
