30
 energy: -48.312492338764 gnorm: 0.125284900442 xtb: 6.4.1 (79825abcba525fcdf90b791dcacef51065a7a4e7)
C         0.80237671277709    1.78493612556325    0.08398861658640
C         2.24062713679547    2.17630029093925   -0.01689659650795
N         2.75027042271214    3.24540533147103   -0.52126148221613
O         3.02645339298862    1.15543994929752    0.37502942555688
C         4.45526123762125    1.31508817206053    0.41203249873172
C         4.93743574960892    1.97199680694671    1.70585308988926
C         5.63932069782101    0.92370904061731    2.59373355405778
C         4.86081871771479    0.71624365920322    3.82234743582680
N         4.18735906981154    0.57170150478919    4.75791128731626
C         5.61557852039265   -0.29718790171560    1.70542911093923
C         5.06285038178678   -0.04847395204995    0.51116829079477
S         4.92798533000566   -1.24508687691075   -0.70779899327031
C         6.11035272175341   -2.43686938851093   -0.25870905611584
N         6.46010641647574   -3.36558090158977   -1.07702037668671
C         6.85123152916742   -2.30234836517687    1.01183857091965
C         6.52186731716917   -1.40815198509310    1.96250628330474
C         7.32283239781912   -1.36879680439044    3.23628872917923
H         0.81680872560668    0.72747366726287    0.35958528703609
H         0.28538341846270    2.06766524028750   -0.83711495374054
H         0.33587752592718    2.27543962265780    0.94301472673785
H         2.11400444629836    3.98638362446995   -0.83520333786179
H         4.79533247295501    1.97590412075068   -0.39433726417423
H         4.19466295098987    2.54266111693377    2.27693984514506
H         5.76663798788920    2.57757181460985    1.31773014631060
H         6.67097759398475    1.22234100486992    2.82032545924755
H         5.83738996960895   -3.33667455800747   -1.89423958813700
H         7.73737221091920   -2.92773038720798    1.05960489854592
H         8.05976129351455   -0.55757784024025    3.19233262674068
H         7.84716442375127   -2.32123796936054    3.35796971999386
H         6.68398105258632   -1.18978220872698    4.10673958687399
