30
 energy: -48.313917225728 gnorm: 0.119829870132 xtb: 6.4.1 (79825abcba525fcdf90b791dcacef51065a7a4e7)
C         0.90489372307918    1.97069810466253   -0.00099722687242
C         2.38801339512143    1.83686163218387   -0.12079646139127
N         3.11633557038584    1.98308002124988   -1.17211601217184
O         2.98627699438281    1.54778606328666    1.05044251185630
C         4.42207810144836    1.62756143670796    1.02900173602851
C         5.11167022002400    2.03874404566202    2.33030281780737
C         5.65363875980206    0.74354782313301    2.96953539195431
C         4.73819877719747   -0.00621140366080    3.84041428857892
N         4.20157979853464   -0.59925875042873    4.68306189058324
C         5.80028164665300   -0.16934667529388    1.77565209616742
C         5.04133660860196    0.29004509198706    0.77236372176018
S         4.84447184084827   -0.52053552280394   -0.72435122959876
C         5.87407950429624   -1.91405802664222   -0.59010129002004
N         6.01271744412538   -2.81521852568323   -1.49738040979826
C         6.58811726688609   -2.18130272442162    0.67481724895777
C         6.54941624690153   -1.41851828368082    1.78319406269844
C         7.45641470529808   -1.66257218441086    2.95937733395624
H         0.50107454965556    2.92677755286282   -0.34338709518198
H         0.67523060956723    1.79373853549502    1.05332235065519
H         0.43014633408692    1.22995277072574   -0.65065274885179
H         2.58916309741125    2.11697548431909   -2.04194582388388
H         4.62358669560538    2.25711485168481    0.15400736452935
H         4.41219518290368    2.60724785671676    2.95564061163758
H         5.90733995696955    2.78131486710036    2.18735144059969
H         6.56851895692388    0.89297259297899    3.55733413085869
H         5.66778666599827   -2.75970656713012   -2.46402396312362
H         7.33865928505459   -2.96555731456857    0.69097319851524
H         8.23349429360790   -0.89153988178703    3.02814536467254
H         8.05121144949442   -2.58061957709888    2.94263455323230
H         6.88903420655907   -1.53767537783319    3.88692362255660
