30
 energy: -48.306446321797 gnorm: 0.134580804519 xtb: 6.4.1 (79825abcba525fcdf90b791dcacef51065a7a4e7)
C         1.18981572355579    1.39458649483425   -0.98207734773340
C         2.61479207065661    1.70811879176910   -0.66106655342174
N         3.51793368527446    2.00627917966997   -1.52855800254494
O         2.93792650897105    1.73588860474738    0.64587557426875
C         4.34577824506922    1.62641261637054    0.91848727605159
C         4.75132588830213    2.09097098894460    2.31766902558410
C         5.89626242665875    1.13669219600386    2.71560590012165
C         5.63959432905582    0.80538866450473    4.12378158657780
N         5.73941909893461    0.55011531363543    5.25275926317139
C         5.74136577827720   -0.01147906727726    1.74712894824481
C         4.79773452332204    0.20352633973245    0.82140832369907
S         4.39074214525331   -0.92579882240311   -0.40126669569847
C         5.22188155534323   -2.36869159675777    0.09601361447622
N         4.93712367790461   -3.50044644954173   -0.44482836413849
C         6.29436827635064   -2.26215091013761    1.10582048246256
C         6.52219747708299   -1.22665886633845    1.93508952831207
C         7.79587743072448   -1.27489725722106    2.73573180236540
H         0.98729711699652    1.96675326544137   -1.89092280190203
H         0.52060214457950    1.61681140234725   -0.14636275374582
H         1.24476229188949    0.33854635267332   -1.26118507560320
H         3.11888691754372    2.21933414344789   -2.44932505910348
H         4.86548199610182    2.15818905585925    0.11245985487614
H         3.85715481515862    2.02081038960075    2.94936899639053
H         4.97823619870863    3.16435466064060    2.35366982038338
H         6.86035975222915    1.66142185236213    2.71160222242248
H         4.33318608534081   -3.46601754302997   -1.27581128939800
H         6.88257870630849   -3.15986722037085    1.26935498214304
H         7.64375609449797   -1.82421981617413    3.67284245333517
H         8.01435166364376   -0.24671986369293    3.03903819888682
H         8.53714492161019   -1.78953511428455    2.11643191614882
