30
 energy: -48.307867178907 gnorm: 0.126930398867 xtb: 6.4.1 (79825abcba525fcdf90b791dcacef51065a7a4e7)
C         0.76726668470056    1.77671938943623    0.00376783091331
C         2.22129693820345    2.11316725420110    0.07090111013626
N         2.71615359742086    3.26139609581904   -0.23535567871019
O         2.96271350458699    0.99919583060030    0.22141322053897
C         4.37096640154882    1.27889325600078    0.30473050174403
C         4.75597172373102    1.95178936095637    1.62267385227803
C         5.63834076709352    1.00766684418891    2.46525261905371
C         5.06058905427120    0.70147220403202    3.78094524641081
N         4.67185566391253    0.40087687680973    4.83367923639100
C         5.85062543153312   -0.18755220736962    1.56712987715322
C         5.11712569266864   -0.00839773968598    0.46100703467972
S         5.13494727278543   -1.13749221259802   -0.82770565232122
C         6.01479326163304   -2.47009195796145   -0.14208991496789
N         6.16738798409080   -3.47387953478034   -0.93176801151598
C         6.71144650792271   -2.38133770249866    1.15717354132381
C         6.65661403717565   -1.32493400883390    1.98954466314856
C         7.26631384720580   -1.29323724000453    3.36536334933070
H         0.07826947876710    2.62500115407545    0.01323125858165
H         0.41122415193439    1.11324804823510    0.79666700505535
H         0.56209306957292    1.33415375092820   -0.97509910276982
H         2.07198887154087    4.02523023165278   -0.46784639131941
H         4.75548845271965    1.93400124990377   -0.48617699874975
H         3.91451423540010    2.38565512779080    2.17694730362386
H         5.28992345132778    2.86438541956826    1.32771480236723
H         6.57605728555548    1.53424334620362    2.68490191864379
H         5.80760540768171   -3.43483246263568   -1.89379213316526
H         7.30637509069710   -3.28423551357817    1.25446244211348
H         7.83696136090607   -0.38635027286781    3.59986277895949
H         8.04666934348468   -2.05306849301967    3.46820435870108
H         6.49958672161134   -1.34464129715164    4.14468940339351
