30
 energy: -48.310775361815 gnorm: 0.126817179755 xtb: 6.4.1 (79825abcba525fcdf90b791dcacef51065a7a4e7)
C         0.94674332804269    1.55570716191543    0.27822378125143
C         2.43450671124045    1.50856923894859    0.15076331756625
N         2.98482945413172    1.18290741119719   -0.96646319214543
O         3.22283643766686    1.86010796056728    1.18432103215898
C         4.60129689979288    1.75393331663090    0.78818666514395
C         5.41165572689471    2.20553927194732    2.00365516427733
C         5.71578443908645    0.94447859181701    2.83858825089081
C         4.76182719799551    0.54674048780559    3.88279583140195
N         4.03135494312033    0.11418791099872    4.67590913022078
C         5.79250002686434   -0.03455614865218    1.69148589284666
C         5.15719656822985    0.37951161236616    0.58760017249887
S         4.97871533020321   -0.51555066569855   -0.86255862867781
C         6.04335716380827   -1.87286332170132   -0.65217742178854
N         6.24135547860408   -2.77445562063796   -1.54794203728860
C         6.59414447036011   -2.13441936703463    0.69300308236522
C         6.39880954314070   -1.35640467712281    1.77391692194674
C         6.78432626048321   -1.87044103851976    3.13507794255536
H         0.55547483496407    1.58049362672522    1.29836262459218
H         0.47697269706681    0.71084466802339   -0.23282663751439
H         0.67242828817696    2.53474229338252   -0.12474334366570
H         2.30321328253030    1.02032260792738   -1.71573503322393
H         4.72831774874160    2.34901472780453   -0.12411934681035
H         4.87368464585025    2.96295105618635    2.58711365965831
H         6.35544429899146    2.59438521068445    1.59992399258520
H         6.64183426595065    1.14064659878760    3.39427775188091
H         5.71247421591532   -2.45695600437353   -2.37009604230679
H         6.93677568504783   -3.15573027051135    0.82775322384251
H         7.47626183474125   -1.26069766026483    3.72880411604774
H         7.12287198550269   -2.90992408477606    3.09340847379283
H         5.92297631260743   -1.77965129366102    3.80417845505363
