30
 energy: -48.311289264751 gnorm: 0.129820423501 xtb: 6.4.1 (79825abcba525fcdf90b791dcacef51065a7a4e7)
C         0.88070218142435    1.54405703455079    0.43019085522171
C         2.27144295127107    2.01279862967151    0.15085333345106
N         2.77917623208345    3.15714075753162   -0.14880283433145
O         3.15466303960110    1.02470032746381    0.38932508652022
C         4.53716760840381    1.40781500063441    0.28806839395904
C         5.12502863382533    2.13699119427171    1.49666859215072
C         5.55020743180412    1.05242525935164    2.50801480837605
C         4.55681510276264    0.66044606336911    3.51703576930924
N         3.89676770476154    0.31188144758952    4.40729427321255
C         5.76145241693626   -0.11367560307531    1.57216109480387
C         5.27548499275260    0.10779393376373    0.34398648748916
S         5.41258043313768   -0.99608781947239   -0.95931786937332
C         6.02654025020539   -2.44566380079694   -0.22324531511635
N         5.91880599469349   -3.59414755744111   -0.79231871342620
C         6.70924125647765   -2.27001820664320    1.07458231602020
C         6.48227591633233   -1.30877667344622    1.98909777079058
C         7.17443748461171   -1.31272510717852    3.32570257318640
H         0.72236639369824    0.51799048863209    0.08886127750669
H         0.13452083042616    2.14467600288623   -0.09717984275391
H         0.76648722868282    1.60124107713860    1.51638879338504
H         2.07885882831972    3.90088119006889   -0.24286885473319
H         4.48305368416220    2.00760158275836   -0.62838460947643
H         4.51908763330440    2.97785968755585    1.85623075487771
H         6.06769733704967    2.51303598532925    1.07845466316847
H         6.36033620755733    1.39329293366795    3.16554160897841
H         5.38032787763052   -3.53585308485217   -1.66587561527620
H         7.19292566625775   -3.18692907582509    1.39700047018163
H         7.59050653926944   -0.33145439997741    3.58467532667086
H         8.00882396320745   -2.00096093391816    3.16137007739216
H         6.46418710340326   -1.74904527657264    4.03494940845015
