30
 energy: -48.314038725747 gnorm: 0.113459501364 xtb: 6.4.1 (79825abcba525fcdf90b791dcacef51065a7a4e7)
C         0.91367605212600    1.47922808784950   -0.44236901605799
C         2.34515696845958    1.90019695791220   -0.36783298632690
N         2.93166575232582    2.98005059033654   -0.75127709976841
O         3.05877452992774    1.00475841224081    0.34084503905195
C         4.46038798912511    1.30145475966934    0.46654167035062
C         4.88228644022013    2.13854390315251    1.67454680621591
C         5.76932219616128    1.16846336908323    2.48200749377728
C         5.19855846151364    0.96918200867267    3.82107993267126
N         4.88514812884932    1.03098015089833    4.93807367102107
C         5.91890026905870   -0.09624408904652    1.67060175905787
C         5.13553257737673   -0.02824091950570    0.58647234540669
S         4.61841209997867   -1.23326175636358   -0.51646171150553
C         5.76305077508514   -2.43796088293505   -0.00801082254676
N         5.86390329896570   -3.54068130691274   -0.66245912682114
C         6.56965748506131   -2.36362347881102    1.22695806899482
C         6.65693586399780   -1.29587942995277    2.04190726406282
C         7.51186266598187   -1.22822607104349    3.27889505805312
H         0.29316106910655    2.06994994467024   -1.12089499385638
H         0.48401659129190    1.59651618191224    0.55627299069987
H         0.78680308254150    0.43131023247987   -0.72857252550931
H         2.44743513554573    3.54625092731084   -1.45652925420996
H         4.74738071895408    1.78785999355646   -0.47346019048834
H         3.95123927670263    2.47744245370611    2.14551200623905
H         5.46123991340802    3.01547666286935    1.35715325472006
H         6.73948767196133    1.60922306189194    2.74535278127075
H         5.32639257735807   -3.68545449299327   -1.52650862504853
H         6.96895143896185   -3.32221618371157    1.54365031096243
H         6.95018037743408   -0.59905621219533    3.98013028474647
H         8.44428597315405   -0.68831281476174    3.08927711809399
H         7.78997632048386   -2.19719012422283    3.70506805180885
