30
 energy: -48.309386195689 gnorm: 0.121083874310 xtb: 6.4.1 (79825abcba525fcdf90b791dcacef51065a7a4e7)
C         1.00726506768166    1.48746418209717    0.03925359545094
C         2.47796774090814    1.42238167754179   -0.21512002087622
N         2.98962852619669    1.10404073134417   -1.35264720317813
O         3.20283486515218    1.78995026001040    0.85853995509023
C         4.62510873537467    1.69255932297131    0.66880147232168
C         5.43596210057208    2.26968529560716    1.82959231312710
C         5.79997730838231    1.06843231203007    2.72645665282898
C         4.87577180065397    0.90511781414296    3.85684236005098
N         4.20447654579000    1.02320882848885    4.79765969023086
C         5.79603272859821   -0.06536515148940    1.72909735264078
C         5.01641289476232    0.24865302331934    0.68640303136590
S         4.70391004206750   -0.79190497877381   -0.63856237992161
C         5.69574928175552   -2.16418726113147   -0.24726166851342
N         5.97732647659185   -3.03631651597164   -1.14979753852410
C         6.44552940939494   -2.31563697573355    1.01613903858088
C         6.49047589891458   -1.32968636242998    1.93140854184209
C         7.27649860267252   -1.48946788252255    3.20508581479104
H         0.72961486796333    0.51780414339138    0.46003671646460
H         0.37533475618842    1.57315891161273   -0.84898629399021
H         0.81347729417969    2.33878911934455    0.69791373610361
H         2.29813369287163    0.72947243305939   -2.01141590188494
H         4.84877192546067    2.15492341493982   -0.30009098536111
H         4.78038733218240    3.01753777997470    2.29267724698495
H         6.36081846751385    2.72539970162708    1.45289357713692
H         6.81753052601008    1.26537005113561    3.08790080193111
H         5.31913458919307   -2.93844036145808   -1.93316353771806
H         6.90137753295521   -3.27652945155339    1.23412469779534
H         6.56182892821447   -1.02695287634673    3.89675024167368
H         8.24764990891955   -0.98952352546021    3.26669172272690
H         7.40647380792146   -2.56736011734668    3.34334912894162
