30
 energy: -48.315226375402 gnorm: 0.120219873093 xtb: 6.4.1 (79825abcba525fcdf90b791dcacef51065a7a4e7)
C         1.02343464709405    2.23817043220595    0.09380660729775
C         2.48422798439143    2.24670471876056   -0.21911192837422
N         3.02104523757859    2.87724296719160   -1.20468514121281
O         3.19720955494756    1.50440367347333    0.64918018047577
C         4.63435353342983    1.46735047587326    0.60926919901635
C         5.12598637365087    2.09734762425427    1.91287714856864
C         5.92808694819920    0.94378579256959    2.54991028230122
C         5.20947606354234    0.56131100268423    3.77298458523897
N         4.49591516560524    0.33343753882189    4.66102996550952
C         5.95405568669058   -0.25438269924759    1.63123965064812
C         5.15663116023275    0.06539073918155    0.60387163883016
S         4.69441755634213   -1.09212367464770   -0.57191375894850
C         5.55209167694238   -2.54659490132808   -0.16090458953666
N         5.44293617361604   -3.54528775326831   -0.96412548370569
C         6.38887385663033   -2.60283297813103    1.05479333897500
C         6.58483509646549   -1.54626834613966    1.86541496769861
C         7.35830580882084   -1.58282025512631    3.15615996073254
H         0.51204589201528    2.05174533792825   -0.85388315403736
H         0.75865817117246    3.25003539524695    0.41266758098266
H         0.77643192094831    1.48677705149681    0.84914670994829
H         2.42614935724070    3.47922761388088   -1.78447483474130
H         4.94119138336849    2.06062893862259   -0.26046039588433
H         4.33657938735806    2.35508847257373    2.62975617423869
H         5.77583945003610    2.95559874449036    1.69832447852291
H         6.97804972450903    1.19501266012542    2.74816298583759
H         5.01110540451281   -3.31023349485144   -1.86674958582908
H         6.73070310212405   -3.60226209781172    1.30563952460318
H         6.77670493364980   -1.17880982123745    3.99376878122820
H         8.34419210656847   -1.11585536442329    3.07341633118231
H         7.55815372054950   -2.63602945041744    3.37677993052834
