30
 energy: -48.311064562520 gnorm: 0.119022162100 xtb: 6.4.1 (79825abcba525fcdf90b791dcacef51065a7a4e7)
C         0.87276317051204    1.69790596874142   -0.81190446478401
C         2.36043930385500    1.82042518250089   -0.75093902431271
N         3.19337919745043    2.46764248188249   -1.48879179256396
O         2.83910101317167    1.18150783528861    0.33347433936596
C         4.24164366431044    1.32580135251688    0.61702704334551
C         4.51261082192091    2.01385843485031    1.95536451834585
C         5.73350936949762    1.26946941554303    2.53430593209669
C         5.66704066454686    1.12404436279270    3.99479652147829
N         5.57985988735876    0.90023651316556    5.13147132768528
C         5.78038897041911   -0.07001637809806    1.83873571002698
C         4.90067177224439   -0.00011120178154    0.83134459370957
S         4.40935077831960   -1.29279341896956   -0.18035135687452
C         5.62298883662779   -2.48912726921129    0.16007184911281
N         5.83882064510927   -3.55001575996149   -0.53447719790558
C         6.58580914432559   -2.24132400045741    1.25225277779725
C         6.71134033415965   -1.16899945825471    2.05611784305588
C         7.76611079119615   -1.11189029273743    3.12841137788279
H         0.54293910462821    1.97701976830910   -1.81574719700196
H         0.29985723477135    2.34223518936417   -0.13939554284567
H         0.54834318577598    0.65541147258912   -0.74788939281010
H         2.84754652050644    2.89397274895049   -2.35544338083031
H         4.78750269060724    1.77885405225010   -0.21923819504935
H         3.61525856979227    1.90182495775837    2.57642546998015
H         4.86856949669779    3.04323650375650    1.81894212403839
H         6.67463905802880    1.70366449275404    2.17293292995119
H         5.37025100684876   -3.65238173396030   -1.44355490984778
H         7.10904349440470   -3.16739043266311    1.46963812061230
H         7.47316931278365   -0.56054724918460    4.03023102536845
H         8.68445579942500   -0.65594062996248    2.74680050555758
H         7.97327889875683   -2.15432380525830    3.38970759162793
