30
 energy: -48.311075950817 gnorm: 0.131427845490 xtb: 6.4.1 (79825abcba525fcdf90b791dcacef51065a7a4e7)
C         1.01345283905124    1.63413431033113   -0.40892015180952
C         2.47273649353304    1.95263368219399   -0.37797847133073
N         3.18652986840054    2.58096499838247   -1.24562159035608
O         2.99238921075075    1.46853172914051    0.76608931761192
C         4.40691561792292    1.56368302841916    1.00777076651276
C         4.57770219818253    1.78670436412058    2.51079650778294
C         5.75783549082556    0.87085956672055    2.89601744499503
C         5.25410026683201    0.27508665929879    4.14096915991368
N         4.82681321519485   -0.23737908637500    5.09203419234936
C         5.83267070981839   -0.17762530733978    1.81189707453330
C         5.04974337813589    0.22819684047601    0.80394909873394
S         4.74744708275051   -0.59354229816773   -0.66891004751805
C         5.72342842030091   -2.01874662243652   -0.47845522013446
N         5.81913433396043   -2.94930638899810   -1.36127175914908
C         6.65572436008940   -2.17822076733756    0.65586434244305
C         6.66885858883212   -1.36750798876623    1.73029876453591
C         7.44434238503363   -1.66336207753923    2.98597023769551
H         0.91045456573241    0.77005834238070   -1.07009542076497
H         0.42305062474627    2.49529192458859   -0.73370068577003
H         0.72032482057854    1.28636416855010    0.58570184879547
H         2.59960349324859    3.00014265097582   -1.97517641258655
H         4.77977440439099    2.41584846259660    0.42695344248935
H         3.64889801568157    1.51497059951088    3.02750999175035
H         4.89305572800378    2.82814405354948    2.65533848925470
H         6.66144700686691    1.48871378123190    2.97715491919910
H         5.23064955513702   -2.78858702056113   -2.18850421621435
H         7.14468737318389   -3.14752162664833    0.65507633244124
H         8.22993952057402   -0.91590490992985    3.15094740755524
H         7.72124179028050   -2.72164601728455    2.97059711017966
H         6.93133947610238   -1.59437938074820    3.95029972489422
