30
 energy: -48.312497201689 gnorm: 0.117220014011 xtb: 6.4.1 (79825abcba525fcdf90b791dcacef51065a7a4e7)
C         1.06174620573179    2.17955988744372    0.14071065436187
C         2.52716932169675    2.15510175832943   -0.14884920886601
N         3.20291733496973    2.69042190489317   -1.10483183020688
O         3.17289328660546    1.42076168993970    0.77693153290751
C         4.60152041712413    1.48822416910491    0.62586205638130
C         5.21555306479469    2.08396435154390    1.89316252586353
C         5.95772559814299    0.92084510773720    2.58324584948341
C         5.26981891240922    0.67750005116211    3.85845833205728
N         4.53944644307555    0.54832299112248    4.75265596255444
C         5.81226464351711   -0.24342176315380    1.63268728830664
C         5.04703241005938    0.06085599115775    0.57653360344354
S         4.63379622516353   -1.01540121077684   -0.69108566292410
C         5.63237216916398   -2.38791536705030   -0.31816349369393
N         5.74972656457501   -3.42058556236680   -1.07598032516107
C         6.28525668873699   -2.52276571662475    0.99973095127318
C         6.41949772652876   -1.53847075859629    1.90801494736499
C         7.19585656653985   -1.70148030007963    3.18719845165035
H         0.48849436902862    1.69419131684349   -0.65313337405898
H         0.61076406178912    3.15193591864399    0.35692713474008
H         0.89873765514229    1.54625792859400    1.01735075864093
H         2.51881124470644    3.11521406873862   -1.74043641504885
H         4.82570377678475    2.08674987052050   -0.26524240979112
H         4.27878488135829    2.28650652630965    2.42697083551284
H         5.76249485426955    3.03068406438043    1.79562631421775
H         7.03243883252082    1.14194262970725    2.61403943037634
H         5.30458883130152   -3.45209960943487   -2.00189492559960
H         6.76738124557376   -3.49164265705141    1.08611952747955
H         8.00672457515283   -0.96322988337549    3.21069178584878
H         7.71718825631436   -2.64626434364040    3.36739523428478
H         6.55797652277093   -1.57946288050715    4.06815404596639
