30
 energy: -48.307508038916 gnorm: 0.126126248444 xtb: 6.4.1 (79825abcba525fcdf90b791dcacef51065a7a4e7)
C         0.97703523272051    1.89247829669672    0.20414133471936
C         2.39994513353029    1.96132779178757   -0.24585331152896
N         2.89600649732075    2.55099803299032   -1.27702639900029
O         3.18718690773408    1.47814129334164    0.73397623913105
C         4.61917354682998    1.61125626889818    0.72739452850362
C         5.15480493064376    2.16209406809585    2.04938911334777
C         5.82094454696306    0.98993112530077    2.79917140557787
C         4.95988378604048    0.48496099258163    3.87721539417168
N         4.21244063956398   -0.01356027674160    4.61377859612674
C         5.92877242257811   -0.11649885532838    1.77720092356639
C         5.20395150513484    0.23433365796548    0.70707142773003
S         4.80868427135120   -0.82355338505424   -0.58156783545511
C         5.80953528177523   -2.23545615410126   -0.42393597237725
N         5.82707417557868   -3.16387229359986   -1.31399326947094
C         6.51910826777195   -2.36034943449112    0.86532599898293
C         6.56795649047904   -1.42424620607353    1.83132892191630
C         7.27584029916178   -1.86074584406425    3.08591418973814
H         0.87886929566470    1.92880816399891    1.29199805686839
H         0.40327941325746    1.08574105870754   -0.26021724931701
H         0.46829619563850    2.81212695172975   -0.09846728045923
H         2.14629529005516    2.96629904959586   -1.84085339748858
H         4.94853959255801    2.07935017492333   -0.20800083006063
H         4.37523886433715    2.59282447326717    2.68990245127873
H         5.85534060521985    2.94985745754073    1.74342266800726
H         6.81379082423491    1.17458839576565    3.22928634370609
H         5.25805387416927   -3.07771427510253   -2.16561012922664
H         7.15703430438193   -3.21045065571328    1.08670326800532
H         6.72108189198755   -2.71512042407031    3.49255866921756
H         7.39035364206804   -1.00706344149089    3.76044184728075
H         8.20975040910968   -2.37075354305381    2.82985556741614
