30
 energy: -48.313747259195 gnorm: 0.125781250733 xtb: 6.4.1 (79825abcba525fcdf90b791dcacef51065a7a4e7)
C         0.89309657282416    1.77498834361139    0.84389356164427
C         2.25415151073599    2.04939104943188    0.29240407065028
N         2.73864735081340    3.13925345342391   -0.19191973840985
O         3.11213996051281    1.03851939239532    0.52751915629922
C         4.49263982679443    1.25379608874691    0.18660156319718
C         5.01159027672257    2.10763768124115    1.34402889493712
C         5.57134490607262    1.08358203990350    2.35292252877192
C         4.52091453008081    0.82285722183220    3.34651099372228
N         3.59832489724348    0.72559665958861    4.04585989678721
C         5.75958914248747   -0.19708597029555    1.57530332115647
C         5.20472668205105   -0.04977030129713    0.36532315281102
S         5.25276490989179   -1.19619264076982   -0.90721790248167
C         6.37824891841325   -2.38544735981379   -0.32499890321465
N         6.70465473180343   -3.39694998156109   -1.04942131608469
C         6.67274309127314   -2.32607436891963    1.12104281876241
C         6.45543174693436   -1.38284334118308    2.05641877560588
C         7.03503839629260   -1.51097855352004    3.43962275689658
H         0.03789439213394    2.36010812355947    0.49654253067264
H         1.03000271212565    1.92392276934105    1.91847480877111
H         0.75509093192788    0.69811422330174    0.71184202761788
H         2.06440801888776    3.88174162292821   -0.40768664818603
H         4.48609529227307    1.72066907438590   -0.80564097486982
H         4.24814529258557    2.81004989410173    1.70078953828907
H         5.81398604737586    2.79636407297640    1.04948877400735
H         6.46650842919652    1.50835272978360    2.82524986610836
H         6.36327172306056   -3.30546511815350   -2.01458800987197
H         7.06797015783302   -3.26617465578889    1.49338225539371
H         8.04199420077105   -1.07652991175473    3.42046668659231
H         7.24883825163547   -2.55871647555537    3.67072750354845
H         6.33546769402180   -1.07301102742952    4.15840455105324
