30
 energy: -48.306733465570 gnorm: 0.131451589817 xtb: 6.4.1 (79825abcba525fcdf90b791dcacef51065a7a4e7)
C         0.92435100590466    1.54408761963161    0.40679262151220
C         2.33799618776638    2.00057263938267    0.24824688560433
N         2.67063776418507    3.17189853027891   -0.16942648998586
O         3.23471783873340    0.99937551496345    0.33058373414724
C         4.62192973417689    1.37175475364802    0.25760756154510
C         4.94615540775332    2.02942797286450    1.59937378642700
C         5.67499964525254    1.02878434322669    2.51990616593586
C         4.68706433000824    0.79549222127360    3.58205394924902
N         3.84496146840678    0.62136688855879    4.36324739803069
C         5.83934839926996   -0.16879344502337    1.61490076861905
C         5.32808793986756    0.06034479512569    0.39845744099144
S         5.38882655632315   -0.94836670557209   -0.98529263434283
C         5.88547165828925   -2.43410597350150   -0.23300116250644
N         5.94184907378138   -3.55171029896954   -0.86723164309679
C         6.55909847757979   -2.34302621689271    1.07818912957666
C         6.58002056557724   -1.36242521096657    2.00004649208304
C         7.27939989422759   -1.39891393744344    3.33239507283658
H         0.80156785455137    0.48364883131194    0.17273593372645
H         0.31543286698720    2.14921904236601   -0.27046971202166
H         0.54260083660024    1.65644520110662    1.42550927152908
H         1.86031749332688    3.76476178695482   -0.37998985558495
H         4.74977384349921    1.88687781638745   -0.70200824025168
H         4.07994510134561    2.51441221968316    2.06625627625323
H         5.54024665893185    2.94685138848613    1.49775331345764
H         6.58164575728491    1.47010903811167    2.95357221197229
H         5.48476003333571   -3.59979316246074   -1.78658806716329
H         6.97772578803447   -3.32047155510581    1.29723570654093
H         7.71015785701174   -0.42706913644984    3.60265014433817
H         8.10878914693605   -2.11214698279618    3.34932432777718
H         6.42698881769837   -1.68001157554448    3.95868689436344
