30
 energy: -48.309848728018 gnorm: 0.136561772226 xtb: 6.4.1 (79825abcba525fcdf90b791dcacef51065a7a4e7)
C         0.84210080357686    1.80092645161451   -0.09825285260552
C         2.28729269181404    2.17577895331611   -0.15130043474768
N         2.90190656956175    3.16298742855657   -0.70336477038356
O         2.98002987946857    1.34351484064732    0.64915969392741
C         4.41738183897923    1.39164042655937    0.65637117481222
C         4.92494444574454    2.04865852204449    1.94038849448340
C         5.62740803417073    0.90345474918960    2.69863304931268
C         4.93917226546215    0.51475371971168    3.93711700579158
N         4.34790873999282    0.20000398399797    4.88635890884403
C         5.65208938921816   -0.26154085529160    1.73820908582570
C         4.91623945909193   -0.01879390654641    0.64586066323840
S         4.85188465927498   -1.11147804244343   -0.67241564370389
C         6.10401117149130   -2.28739434578866   -0.40893853691981
N         6.37304024234704   -3.19024335956502   -1.28469722372344
C         6.79248975246494   -2.25404181104846    0.89726729412552
C         6.62247438706596   -1.33976294052306    1.87042003414312
C         7.39138467113828   -1.53140434915899    3.15013343695662
H         0.65077294559175    1.20918908756526   -0.99693477870873
H         0.10928720843195    2.61178314951835   -0.06441115689650
H         0.80597072991617    1.01877192075299    0.66533731303715
H         2.27243892621273    3.53243001758937   -1.42428458196869
H         4.64874335057894    1.91514896389754   -0.27902665828087
H         4.12784463153607    2.48844275973258    2.55254127249727
H         5.62988893532957    2.84617298330078    1.67213330014891
H         6.65382497562310    1.08683798187159    3.04167800302816
H         5.67653456649536   -3.18163127793456   -2.04051749529952
H         7.52538770020788   -3.05259191073062    0.95897676831550
H         7.88493831150626   -0.62077616209300    3.51101250643384
H         8.13622357007530   -2.32908820443135    3.07404113584998
H         6.74136111898801   -1.67716623097561    4.01851403573996
