30
 energy: -48.311236786483 gnorm: 0.128497036900 xtb: 6.4.1 (79825abcba525fcdf90b791dcacef51065a7a4e7)
C         1.05714406031891    1.46271711708276   -0.30360227789588
C         2.51341963561351    1.76393528136411   -0.44656061674042
N         3.15128454989575    2.03856899148697   -1.53044736489035
O         3.21260356256008    1.58939647130060    0.69096423666634
C         4.64663497218875    1.61919816498417    0.58601462706811
C         5.33102370504808    2.31393027830625    1.76370401316836
C         6.01677377189935    1.21333862551131    2.59936321775377
C         5.25711676078452    0.93318835328525    3.82534705556263
N         4.50865390055653    0.83782053171551    4.70876563905377
C         5.84870143142142   -0.02763239898558    1.75557388833535
C         5.09005120598890    0.19304950137388    0.67419732396441
S         4.60330180440746   -0.98982690917922   -0.46590387123788
C         5.41379830985719   -2.43582546883120    0.05582744485093
N         5.12636293121512   -3.55973470792456   -0.49975789226926
C         6.46668197019447   -2.30193850610508    1.08286146283775
C         6.56432953409371   -1.28066712777578    1.95424357468908
C         7.46095287522915   -1.43630242774144    3.15318471066738
H         0.86304796644007    0.38912250581285   -0.36771136783183
H         0.52879975094260    2.05943107443919   -1.05222391147968
H         0.74351503143728    1.77858840090646    0.69539882064206
H         2.57628333729055    2.13682488374174   -2.37434433590601
H         4.96091550546764    2.08104599593153   -0.35763928012787
H         4.59585067144102    2.77778254761317    2.43293562857601
H         6.07784378021473    3.09491946691023    1.57069490532718
H         7.05929993350929    1.37849255091803    2.90053472828134
H         4.27426563578642   -3.48605464397616   -1.06981055304842
H         6.82011399756601   -3.27241964183199    1.41734880957073
H         8.10849997732358   -0.59964236464916    3.44258966567395
H         8.08311244477974   -2.32890862223462    3.03896492429021
H         6.71143582961564   -1.74906552785329    3.88685044755008
