30
 energy: -48.316011711234 gnorm: 0.123824133328 xtb: 6.4.1 (79825abcba525fcdf90b791dcacef51065a7a4e7)
C         0.83715098734476    1.75291306429939    0.51607372975605
C         2.21840202209263    1.99897092959805    0.00274233047615
N         2.58709228473970    2.90692038593106   -0.83200378653871
O         3.06609437182504    1.10350871519416    0.54389836401102
C         4.45861729340448    1.17011942489154    0.19063986487837
C         5.27023524102497    2.11442690629712    1.07808148830391
C         5.91002080730805    1.23543892045258    2.17258411698328
C         5.00306392334537    1.41596239774594    3.31426699529404
N         4.11552596147751    1.59598448927526    4.04199529390156
C         5.86587736038177   -0.14965201286680    1.57274056158027
C         5.14335197753883   -0.13549905201377    0.44518448190843
S         5.08439563019787   -1.42349952352170   -0.68332394225615
C         5.98880544922805   -2.68855749964553    0.09236361110053
N         6.43635783165737   -3.77498812519382   -0.43092551282156
C         6.43343700290058   -2.52140010347396    1.49080910151656
C         6.46681515811175   -1.34617776722702    2.14622913410037
C         6.98800233355239   -1.26420120791051    3.55593101279280
H         0.29156474354795    2.60204062765436    0.93524754794960
H         0.91829266544020    1.06131605755884    1.35913909770477
H         0.23022221321801    1.38943796613523   -0.31799122353866
H         1.87211227471016    3.51083594314519   -1.25216125355298
H         4.53049232263587    1.54595039779060   -0.83704852584361
H         4.64275020772434    2.93122550752051    1.45572133031225
H         6.10177478444323    2.49808218498484    0.47286460581184
H         6.91746068045973    1.48551092065244    2.52947316898135
H         6.23104676846159   -3.88522073655256   -1.43200229644634
H         6.92218970834522   -3.43930845627379    1.80256968334056
H         6.21511365036971   -1.30365030488056    4.33320792243315
H         7.51007531926825   -0.32915747541774    3.77955463244349
H         7.76586059602636   -2.02373522972752    3.68205221580783
