30
 energy: -48.307202547356 gnorm: 0.127023340968 xtb: 6.4.1 (79825abcba525fcdf90b791dcacef51065a7a4e7)
C         0.78780760525104    1.57054110144420    0.06207137772182
C         2.23196842226562    1.94153582344793    0.15518676281661
N         2.79539501697905    2.95418248561329   -0.40535138975858
O         3.08827375767103    0.96449537866931    0.50933066049613
C         4.46038822191943    1.38746921579755    0.42721070201522
C         4.90901879644319    2.10887418308188    1.69854796308379
C         5.71608028590436    1.09681039486589    2.53775001459333
C         5.01524029518094    0.84410332634743    3.80406819919302
N         4.25616707840792    0.48387514236528    4.60641698077166
C         5.90333575690632   -0.09604624566438    1.63096103593333
C         5.23977439117159    0.11179176878457    0.48635820733705
S         5.16393840090671   -0.96765851182595   -0.84217042942007
C         6.02188914140756   -2.36502307234180   -0.26657265245293
N         6.05429888661123   -3.41565227607046   -1.00791874569779
C         6.65277268140515   -2.33476633124987    1.06847756628616
C         6.58201656238812   -1.33907560063540    1.97148952782993
C         7.24276093075329   -1.47457730559600    3.31710157696806
H         0.70261423876726    0.49233673930311   -0.09479194823069
H         0.34923500812023    2.21458115081551   -0.70507665170624
H         0.20923805186337    1.75939486678237    0.97076965448078
H         2.11869052478013    3.67878738634760   -0.66890685190136
H         4.56345743474917    1.87959678153060   -0.54733820493398
H         3.90754303922298    2.33620973696636    2.08439006563972
H         5.37321613350475    3.07520159835355    1.46260514794516
H         6.67871572463294    1.57082069111111    2.76902507461813
H         5.58064778098853   -3.34581994169722   -1.91744426100611
H         7.19417346776661   -3.24639256846742    1.30182795765265
H         8.26024985053687   -1.84915895724363    3.15133839536743
H         6.82220573971395   -2.27267205079157    3.93601402481004
H         7.24028074800725   -0.48469341817900    3.78399096872132
