30
 energy: -48.311739625200 gnorm: 0.115973323582 xtb: 6.4.1 (79825abcba525fcdf90b791dcacef51065a7a4e7)
C         0.89744526088661    1.96844641805416   -0.53754013236912
C         2.38533252466757    2.00108866992004   -0.40702580348337
N         3.17897596899185    2.58018968882661   -1.23881778225928
O         2.82252811783325    1.38695629353873    0.70876368535548
C         4.22354431336844    1.41136375644199    1.03265645705823
C         4.52756477621641    1.75683462062917    2.49081089824561
C         5.70282454298870    0.85220914302577    2.91542680110687
C         5.45813336041798    0.12507091962109    4.16842142502238
N         5.09844146227270   -0.40989176104227    5.13493926052585
C         5.76988904067819   -0.18699296842751    1.82190078638498
C         4.92923471329430    0.10904752070482    0.82225771898599
S         4.86759942219134   -0.64483417974564   -0.71521286310270
C         5.71936959924432   -2.12541345755111   -0.39522450664441
N         5.83142056100108   -2.97920666842366   -1.35070756288591
C         6.56389441370506   -2.20182646922979    0.81400147156706
C         6.68445864665703   -1.32067965130921    1.82438832655944
C         7.54899989729990   -1.56247865803619    3.03257592091114
H         0.53248652332607    1.49432855765321   -1.45209249922262
H         0.51090628682800    2.99061425909240   -0.49998840913047
H         0.41146394846606    1.53005873591529    0.33869010760541
H         2.63898154929853    2.85144521858608   -2.06783477661167
H         4.72352859026391    2.10362254728113    0.34465074457360
H         3.60656043994192    1.61253319982534    3.06911651109400
H         4.81460340301383    2.81432751846027    2.55603704535455
H         6.60134525806164    1.48265471533166    2.92173547523514
H         5.40254900748781   -2.71431172514116   -2.24645219426881
H         7.25817989817110   -3.02140651463784    0.97175388852043
H         8.30127114184255   -0.76519727588914    3.07134337581433
H         8.18873029512326   -2.44353380185482    2.92598625576246
H         6.99404742185917   -1.61697554210684    3.97434011431973
