30
 energy: -48.313409881846 gnorm: 0.129335713058 xtb: 6.4.1 (79825abcba525fcdf90b791dcacef51065a7a4e7)
C         0.94896839763325    1.94948647458399   -0.26483989237524
C         2.41467168227017    1.81335859143949   -0.51996946922638
N         3.07300332503123    1.86538423535637   -1.62495751729016
O         3.04669192348666    1.52244316699809    0.63294136073896
C         4.48396390750418    1.47389490795599    0.61741870545159
C         5.00528849993358    2.22403647425086    1.84359211874455
C         5.94794503866282    1.21510797551426    2.53159166288320
C         5.50928672578942    0.88720919447055    3.89491868838087
N         5.30165973998468    0.75993838809086    5.03088226075327
C         5.91877718461272   -0.04066142733408    1.69348053322855
C         5.03250770275806    0.08428123799896    0.69721666924589
S         4.48585028980331   -1.10682035318649   -0.40659264366061
C         5.60396741777526   -2.39748607353053   -0.08407741749945
N         5.75328692193433   -3.43118985210277   -0.83482792810411
C         6.47865952543572   -2.32973607710957    1.10403547801526
C         6.52458145665209   -1.32870329625368    2.00273543256109
C         7.24067007211324   -1.49214780073522    3.31655376477987
H         0.53704914293728    2.69316268284756   -0.95161269573892
H         0.72512026304250    2.17321995171010    0.78181427679657
H         0.45978582554309    0.99093572460263   -0.45983194693737
H         2.47179172410395    2.14070509824000   -2.40929529288952
H         4.71521991099441    1.94810289092290   -0.34393753490130
H         4.20555246903673    2.39887248189767    2.57390980555956
H         5.51268426073508    3.12360636132235    1.47175826585506
H         6.96837765353453    1.61633739332644    2.58231766995597
H         4.99118796917075   -3.34996100340815   -1.51971160642139
H         7.03103888567597   -3.22379096539528    1.37638178610433
H         6.52656436060509   -1.58150797169339    4.14428581006839
H         8.02867182548454   -0.73342169413834    3.33275394210897
H         7.81057520247056   -2.42652426446579    3.31982978692962
