30
 energy: -48.317959941092 gnorm: 0.117682359918 xtb: 6.4.1 (79825abcba525fcdf90b791dcacef51065a7a4e7)
C         1.02206628943116    1.84003943213475    0.64675492776345
C         2.45384095133529    2.12683210312822    0.33103463395615
N         2.92354424158162    3.26255202484826   -0.05188165804039
O         3.23292328974819    1.03741031031970    0.47058972300692
C         4.60021365510045    1.25917811964744    0.08369859116824
C         5.33137547326863    2.20144432210312    1.04053177480493
C         5.77979030737714    1.24449618329911    2.16438934493795
C         4.73054346075277    1.01353827353013    3.16655640701829
N         3.76936635698427    0.85987171156705    3.80078446665529
C         5.87706366617025   -0.10692268284716    1.49772393966880
C         5.21453647361204   -0.08179449659800    0.33408644083165
S         4.97828620827076   -1.40208076136054   -0.73220728307591
C         5.91487475599115   -2.66797731656324    0.00286262909201
N         6.34171063324809   -3.65137455717694   -0.70791661261842
C         6.35116689148222   -2.52736988894773    1.40684528510700
C         6.42613963566805   -1.34211753179503    2.04040110187063
C         6.93640133468798   -1.31985528735389    3.45629410251684
H         0.78150505317620    0.82424093050726    0.32322385563467
H         0.32178023500897    2.58235426696108    0.25404926891767
H         1.01830467705544    1.85497863183265    1.74032874869880
H         2.27995419882497    4.06115802816864   -0.03036372988592
H         4.66643201142350    1.56638207179785   -0.96691990761826
H         4.71791488159384    3.06479362219990    1.32654463418557
H         6.21031972962052    2.60303505177183    0.51984114124296
H         6.74629739652026    1.40928848008880    2.65789562017730
H         5.97396655935132   -3.74389104806326   -1.66325088832073
H         6.69355348825697   -3.46106669257021    1.84228907875620
H         7.95074611887658   -0.90444187705582    3.49640520323339
H         6.96276476694487   -2.27603173947644    3.98724236817789
H         6.21129124198354   -0.71691366483565    4.01175671909352
