30
 energy: -48.309100540318 gnorm: 0.121154071199 xtb: 6.4.1 (79825abcba525fcdf90b791dcacef51065a7a4e7)
C         1.11772315999241    2.21569981872269    0.69158679545369
C         2.48433002366278    2.22011211378931    0.08803544386668
N         2.96139243655253    3.14828465981643   -0.66563091912396
O         3.19005838901939    1.13399816749118    0.45625918643790
C         4.57960836528979    1.14766592523202    0.08570189547332
C         5.32337782384353    2.08306729817298    1.03954895710987
C         5.70721372478508    1.20929819095400    2.25160464721231
C         4.62558867974585    1.13208318581293    3.24292922554132
N         3.94591269699917    1.02948622229555    4.17953719462300
C         5.77555984574452   -0.17852293370693    1.66040320127542
C         5.23438596706772   -0.15121595034218    0.43565379717823
S         4.98799374638852   -1.38750157623993   -0.72488101457627
C         5.85489231980054   -2.72210920004710   -0.02679124779614
N         5.91623879364141   -3.90300074786785   -0.53295118818198
C         6.46559079372696   -2.45731293197738    1.29162404167870
C         6.39239789096049   -1.41009892062796    2.13413377107447
C         7.08316143806376   -1.46641679890371    3.47028107164863
H         0.77478312153161    1.17854809114953    0.72470903835035
H         0.41015008269009    2.97490635436158    0.34720999184398
H         1.30982831202605    2.49528846796612    1.73133043158699
H         2.24018721771772    3.85799349668358   -0.83480276197985
H         4.74366817385742    1.47462966331204   -0.94809569762784
H         4.63098233713908    2.89559125575313    1.29233855639049
H         6.24589880631554    2.50797392157453    0.62320023782210
H         6.67581720219320    1.56982473745320    2.62129209056184
H         5.73791636550058   -4.05002844296056   -1.53447130733875
H         6.97346446617689   -3.35768371186947    1.62332631685965
H         6.88529132242840   -0.49256963931115    3.93454572895219
H         8.12873330219788   -1.78055528928864    3.39977583855991
H         6.59340260183763   -2.17416336473804    4.14636763368537
