30
 energy: -48.320506855512 gnorm: 0.115324233510 xtb: 6.4.1 (79825abcba525fcdf90b791dcacef51065a7a4e7)
C         0.99174520363369    1.56642715315560    0.82343389466742
C         2.37337025394939    1.49821675212593    0.25919318054835
N         2.76794927091991    1.23070900104076   -0.93657134905517
O         3.28149511457131    1.74794922858784    1.22160041365051
C         4.65687566589002    1.77332620750251    0.80203754683584
C         5.34056399458406    2.20933843238359    2.09836179781850
C         5.61852530516773    0.86672367818557    2.80547182223991
C         4.46976456102475    0.46983044227078    3.63095581783215
N         3.56417628232689    0.10280360140235    4.25938340558332
C         5.75832176142891   -0.12735842125222    1.67742236842279
C         5.22403062201150    0.40810786755220    0.57223695734062
S         5.25589352325268   -0.29458931816865   -0.99018224257248
C         6.16638208468253   -1.75328644439137   -0.73872000031055
N         6.41235439433907   -2.66584562998286   -1.61118748015192
C         6.55981867724597   -2.16517384116909    0.62394100792002
C         6.36154898938554   -1.45131504305978    1.74774339754821
C         6.75383294897145   -1.98197329016917    3.10056664608672
H         1.00048313044223    1.26880338192792    1.87497200535546
H         0.36683554071448    0.83588097243992    0.30243504844528
H         0.54464750530911    2.56437945739510    0.80510694481782
H         2.03264472455854    1.10615510252986   -1.64102593472260
H         4.86682871327145    2.37903015503624   -0.08768197110785
H         4.81489280290935    2.90093431750594    2.76834254547460
H         6.31987944328128    2.62955306670572    1.83511709303699
H         6.60582981209209    0.88630633804340    3.28472878281934
H         6.06469446145749   -2.56493802839084   -2.57316919164799
H         7.03443781872194   -3.14154756075384    0.63172828762727
H         7.55873960249347   -1.37786267638217    3.53674113982164
H         7.15416534132339   -2.99920388263623    3.05755027708501
H         5.85777060703727   -2.04790426275418    3.72553652850144
