30
 energy: -48.309873034150 gnorm: 0.132952060930 xtb: 6.4.1 (79825abcba525fcdf90b791dcacef51065a7a4e7)
C         1.02217474664345    1.57112877728138   -0.67883130561806
C         2.43983646453908    1.98517562582910   -0.45364582942933
N         3.20369928268161    2.83275787921725   -1.04965232400149
O         2.90882517112486    1.41339254276858    0.67169788741723
C         4.30338462078545    1.47758281758661    1.01728764751446
C         4.51779651720419    1.68718474024115    2.51665004964169
C         5.72637201689995    0.83127199281652    2.94866879096314
C         5.49370751327645    0.29533514670114    4.29671864434572
N         5.14922153160529   -0.04909850750093    5.35142951103812
C         5.82947059892556   -0.12828860112963    1.78726780073025
C         5.06114710962798    0.21645755401254    0.74589593386468
S         4.75880435730589   -0.60798267515751   -0.72544350143113
C         5.59427026894595   -2.09975043687428   -0.41456447812321
N         5.60848820895270   -3.07910148921227   -1.24831240469471
C         6.60860478155649   -2.09864201738743    0.65894055307664
C         6.66597007149602   -1.32032829497385    1.75565120953859
C         7.53585013525560   -1.67531936575540    2.93162137821393
H         0.47148565416510    2.38398874011789   -1.15881970767450
H         0.64854680320150    1.36660412287952    0.32825430888427
H         0.95701847416643    0.72727782697613   -1.37151540941258
H         2.82402046811924    3.20717734039169   -1.92606363196302
H         4.73315284955822    2.34241378775619    0.49774448438413
H         3.61151907323722    1.29880976436429    2.99762341457090
H         4.75126153550196    2.72045242636881    2.80438059471467
H         6.63862595138927    1.42160998533466    3.10402257920957
H         5.05424613607758   -2.96653932302293   -2.10656882890829
H         7.20366756333019   -2.99864667339181    0.77944616949145
H         8.07381542945463   -0.78246384079716    3.27290562640753
H         8.08636647196621   -2.61198051219022    2.80327725739980
H         6.80940072455161   -1.73487389729267    3.74806887140216
