30
 energy: -48.309729863137 gnorm: 0.133250328993 xtb: 6.4.1 (79825abcba525fcdf90b791dcacef51065a7a4e7)
C         0.85763114750273    1.53963920778125   -0.26125591256977
C         2.31429713950133    1.85130610305315   -0.37481634863819
N         2.87425079961732    2.56953413086024   -1.28459996082184
O         3.09821364535849    1.35234785783263    0.59976066871107
C         4.52832467817078    1.50116533973812    0.56838363437573
C         5.03982947336605    2.21337789131791    1.82102451479262
C         5.86723812351099    1.15601346647722    2.58079881425432
C         5.50942452341934    0.96865632390854    3.99340853858992
N         5.16182352896057    0.68669782172620    5.06550606635811
C         5.85609972909141   -0.07331646971686    1.70395106043465
C         5.02338256631952    0.09289344664044    0.66829538675083
S         4.72210382878532   -1.02730912153044   -0.59278744545749
C         5.71906428471552   -2.39670592612486   -0.20440312581433
N         5.85406838494091   -3.44582204513949   -0.93624704546029
C         6.38690967377701   -2.35728437770955    1.11230386543222
C         6.40470443370863   -1.38056768830494    2.03834122279269
C         7.16245972639667   -1.55687556778421    3.32688237575023
H         0.54714944861424    0.49302921320700   -0.31221958991212
H         0.32721228192371    2.15607364915303   -0.99222377517587
H         0.57962760592982    1.86258042942030    0.74599978081235
H         2.24105262978470    2.89849480529413   -2.02168046394006
H         4.85618411600830    2.01208168728470   -0.34486940709101
H         4.19602741987905    2.51967785924228    2.45164939244843
H         5.65686778054094    3.05696877262839    1.48553226494724
H         6.90898533302209    1.49068840491727    2.66795631383450
H         5.58401689421087   -3.21136409943845   -1.89986536814326
H         6.82689483948528   -3.30018402518208    1.42211513779062
H         6.70892469934790   -2.27112863054823    4.02489465146560
H         7.44224080255570   -0.65829866156187    3.88469655197508
H         8.16217259381581   -1.89154901536117    3.03289279642831
