30
 energy: -48.309763221500 gnorm: 0.129105797819 xtb: 6.4.1 (79825abcba525fcdf90b791dcacef51065a7a4e7)
C         1.16184915995801    1.96780977292306    0.79421714267843
C         2.50559136345162    2.30012159935728    0.23222625111190
N         3.01645296771365    3.33929803035514   -0.33012468330248
O         3.23962607647564    1.18314450288026    0.39605530669490
C         4.63487042968306    1.22885053267654    0.05029122263649
C         5.46628693109245    2.10785739307945    0.98521714869628
C         5.72108654390711    1.21079589915909    2.21413508022573
C         4.58439501890198    1.06539744199367    3.13358653504196
N         3.67206906642981    0.97418123685943    3.84707166048138
C         5.80931996334291   -0.13113590086274    1.52735147156507
C         5.23756631534906   -0.11437192150922    0.31638381366180
S         4.92365759144877   -1.46140511902668   -0.69500888545965
C         5.83894847522852   -2.73300496091914    0.05685307523339
N         5.97229708562167   -3.88290176579810   -0.50388003011616
C         6.45338630056404   -2.45800490483564    1.37143654414864
C         6.44678319279229   -1.31640192544381    2.08455369966180
C         7.00731642895393   -1.35432838043944    3.48097042687450
H         1.01689560714360    0.94520652960235    0.43692211964709
H         0.36001688435324    2.52098376637370    0.29751487659289
H         1.04525355470283    1.94338560549176    1.88139236092061
H         2.44189337564944    4.17361859125520   -0.49209131347071
H         4.64447994970209    1.55229856390530   -0.99749090903042
H         5.05361159708751    3.11167444529508    1.14509104546106
H         6.40242473161655    2.11911574543137    0.41210622584294
H         6.59763877149796    1.48880180878692    2.81347621580401
H         5.38961761816326   -3.88052343472284   -1.35060169093750
H         6.99715660024987   -3.25167728589368    1.87445504979656
H         7.61632876086276   -0.47752889995309    3.73276238560024
H         7.74420196561491   -2.15589755895505    3.37438208394618
H         6.25657099453645   -1.59385263024016    4.24049092287301
