30
 energy: -48.314375981512 gnorm: 0.128580336939 xtb: 6.4.1 (79825abcba525fcdf90b791dcacef51065a7a4e7)
C         0.72167225547213    1.77909105061096   -0.21716610952983
C         2.19324140042104    2.03675736056229   -0.21776803116851
N         2.69858591389791    3.20703820422414   -0.39714331176898
O         2.98466660921798    1.06296325032070    0.27075622690242
C         4.37757748218106    1.36246855008102    0.46682918885290
C         4.57359229024605    1.96981544617825    1.85632585622763
C         5.65853167451524    1.09883733035233    2.52279808433117
C         5.35709770373468    0.68493765344196    3.89990523239512
N         4.97676896365087    0.48639268182612    4.97955799505743
C         5.88310154066910   -0.08002650548307    1.60623573091812
C         5.23504583267373    0.13654534215878    0.45439081758669
S         5.11465122260539   -1.03579906160320   -0.78942038563301
C         6.01247886202474   -2.42294688067713   -0.25113924044213
N         6.25545353840663   -3.51313057410659   -0.88904916739077
C         6.65036690686898   -2.32398437713179    1.07724100236551
C         6.58330696977669   -1.30799776267396    1.95764515859142
C         7.19622612401689   -1.59759039927120    3.30155068196074
H         0.38147081911624    2.12438845351401   -1.19666666997106
H         0.25782123736284    2.31280126239908    0.61688739738835
H         0.52704363132668    0.70408519828297   -0.16594941357941
H         2.00223590527415    3.90851825998107   -0.67185245313194
H         4.67779409291110    2.11468217875897   -0.27249691439459
H         3.63101887002599    1.80422770548547    2.39265164982215
H         4.86134548668607    3.02068936471883    1.72291296129913
H         6.56687698810626    1.69595057666095    2.67513176465999
H         5.77885086514628   -3.74801025579376   -1.76890144964912
H         7.18852487960228   -3.24573329528305    1.27572183503249
H         7.57238969001934   -0.65258154242973    3.71207695080800
H         7.98750200981950   -2.35216988881898    3.26458014004755
H         6.45150690525273   -1.93167977239040    4.03068687420814
