30
 energy: -48.309825235296 gnorm: 0.136151720121 xtb: 6.4.1 (79825abcba525fcdf90b791dcacef51065a7a4e7)
C         0.76215067777962    1.78793794518479   -0.18075322438183
C         2.23112936118948    1.91829221611666   -0.41953641633364
N         2.86926957053231    2.66464616325749   -1.25190572485958
O         2.93334729341296    1.10838724789838    0.39546583572444
C         4.36310309368884    1.24874729708452    0.32878713106099
C         4.81618371383556    2.09819769824252    1.51670333703493
C         5.78701936355719    1.24204777939642    2.35596902477832
C         5.36158690304079    1.09978890898257    3.75502904495854
N         5.15601594347440    1.05380452042976    4.89754647478353
C         5.86803603949125   -0.12656330663574    1.72305685005223
C         5.14250450426750    0.00187006083308    0.60469428852976
S         4.85840517129519   -1.28090621739475   -0.49518067348812
C         5.92284790532374   -2.54953341632525    0.03166529820546
N         6.06301386478429   -3.67486622565216   -0.57533199535091
C         6.59634636489658   -2.46947281058857    1.34364041969617
C         6.50184337718048   -1.37572994343444    2.12250676078953
C         7.25328845992834   -1.19495901981738    3.41412116840693
H         0.49636268976673    0.74939037227945   -0.39327226591909
H         0.20756361912607    2.53687170319686   -0.75275062552639
H         0.53420699162525    2.03484260012411    0.86002571367360
H         2.18443376804981    3.17568919072560   -1.81960076698467
H         4.59441549744989    1.76262396578473   -0.61194859655370
H         4.01539400118854    2.45876449650672    2.17415043755437
H         5.26193338028999    3.04136938651248    1.17513159566523
H         6.76510904788075    1.74015238987409    2.34740944241542
H         5.51139318522005   -3.81827232371276   -1.43067280678167
H         7.15983805321371   -3.33615828094528    1.67524714567319
H         6.67477279310844   -0.74450847576939    4.22989471091070
H         8.05069101870053   -0.44904424611974    3.34604166501088
H         7.64433165799859   -2.16975497113304    3.72188737207724
