30
 energy: -48.305972615585 gnorm: 0.138431662105 xtb: 6.4.1 (79825abcba525fcdf90b791dcacef51065a7a4e7)
C         0.95834190995470    1.81111406424967    0.57669574819394
C         2.38613154703649    2.11860731305584    0.26241454688464
N         2.91906080644123    3.24706135203002   -0.05331269721807
O         3.23245582714306    1.08498523422984    0.43166395546940
C         4.61498819708385    1.25669839051828    0.07463807090177
C         5.52902124170570    2.15534232182316    0.90829004819505
C         5.77174473218487    1.22500679562685    2.11470728958722
C         4.74106452602354    1.30574077401097    3.15863240242504
N         4.07494696853677    1.11869098393311    4.09191683764711
C         5.78655280749777   -0.13058459028886    1.44958284042996
C         5.26115191306849   -0.08496573078881    0.21852688919929
S         5.24509236614633   -1.38868273534195   -0.89323584427390
C         5.73777879196840   -2.72389139384012    0.10400931227877
N         5.85032945633016   -3.90040280443684   -0.40355288718427
C         6.17443298559810   -2.50060622404940    1.49712288764995
C         6.31316541321055   -1.31361777899639    2.11651678082211
C         6.93554130838208   -1.39052676347322    3.48485477012943
H         0.38401825296590    1.05402243856433    0.03692425500666
H         0.36897614918935    2.73213383684240    0.57220301149771
H         0.95303596055317    1.44717713975196    1.60803603750383
H         2.23898407075247    4.01351302260563   -0.10321443013503
H         4.62901288964836    1.59840886870533   -0.96728113259321
H         5.07741682368744    3.10251325918829    1.22833681651358
H         6.50866071573082    2.40673968069494    0.48162539835704
H         6.62289022705707    1.49122069504334    2.75464666218401
H         5.65121225187260   -3.97055809426990   -1.40947990282332
H         6.54926891710743   -3.40644957813082    1.96357272654299
H         8.00050464775799   -1.25425083348424    3.26045667433198
H         6.69302881833851   -2.35693577185220    3.93664656929264
H         6.67267417856808   -0.53810036673024    4.11899360962228
