30
 energy: -48.308821295363 gnorm: 0.134542130189 xtb: 6.4.1 (79825abcba525fcdf90b791dcacef51065a7a4e7)
C         0.95226156877620    1.72776851572982   -0.29830037650223
C         2.39615532344515    2.11104941709412   -0.28508678815269
N         2.99567137477482    3.13969838500131   -0.77454323565304
O         3.12260889042042    1.16365787281540    0.33780905646190
C         4.55007817239994    1.33881371651034    0.33707726337773
C         5.08380447151761    2.11294056510585    1.54283711022856
C         5.85949236079243    1.08508984201461    2.39237382594269
C         5.31587985762736    1.00282785194027    3.75484133679881
N         4.77856580521010    0.93254326607414    4.78249582540746
C         5.90307099860920   -0.22876421214311    1.64932183065310
C         5.13148728658948   -0.01900686781384    0.57494461843461
S         4.72202288834680   -1.20964771014556   -0.58723679645609
C         5.53254273254682   -2.57297144571677    0.12299272140525
N         5.46711345986532   -3.73095076287954   -0.43312692999240
C         6.45418190231616   -2.49188693457361    1.27420736267753
C         6.60511540846496   -1.42826533637779    2.08523463941295
C         7.47974468895638   -1.32074137132555    3.30551241106267
H         0.41486665520619    2.11904886205287   -1.16576510567333
H         0.42814395866950    2.17410752960106    0.55124763407114
H         0.79522560665375    0.64705742061549   -0.35783411751727
H         2.35321569239131    3.80011369906902   -1.22570287739758
H         4.75449191561238    1.76871182378875   -0.65083012657029
H         4.26007279069142    2.58572577382550    2.09188131182334
H         5.83682189526120    2.87491780229344    1.30347899588769
H         6.84901261357042    1.47040226956305    2.67026752652680
H         4.83886354572133   -3.60959148299595   -1.23751027344414
H         6.92534611401643   -3.44782576243024    1.48112487784004
H         8.49053795739098   -1.21663036278342    2.89255912356457
H         7.39804087892133   -2.31574653504234    3.75290902505739
H         7.08270450508176   -0.61080777707722    4.03777967573229
