30
 energy: -48.313353870740 gnorm: 0.115774226267 xtb: 6.4.1 (79825abcba525fcdf90b791dcacef51065a7a4e7)
C         1.00572197125137    1.70868121745613   -0.21562540289471
C         2.47021013728069    1.64205899494381   -0.50327781794026
N         3.10864026680587    1.37686461018882   -1.58918053669351
O         3.16195186059592    1.72069231382157    0.64936911055690
C         4.58005796486310    1.54055850040954    0.49164934165126
C         5.29631688109409    2.36363623756324    1.56286787338995
C         5.93623757781450    1.31166187778545    2.49224017869570
C         5.21594524878791    1.07034514289622    3.74983490358991
N         4.52929126080372    0.77411780756494    4.63892192083651
C         5.90795421419648    0.00654883665467    1.73321592371465
C         5.00426127954463    0.12977996283516    0.75251255392312
S         4.55941312230899   -1.05709866752414   -0.40047554263667
C         5.42806712813848   -2.44566392361387    0.18034001840631
N         5.39941598064938   -3.59409412008354   -0.39823869216465
C         6.26476987455054   -2.31885829289678    1.39076862754657
C         6.62240978447563   -1.21601952845118    2.07463805132114
C         7.62621838945008   -1.19303131605017    3.19600124799977
H         0.46814109819469    0.93607765307974   -0.77103443761613
H         0.67599046896230    2.73163675245057   -0.41684348429787
H         0.88724852529037    1.45089719800641    0.84061911078129
H         2.56902296969291    1.19486444474509   -2.44248694409527
H         4.76980966216807    1.89778949906187   -0.52763406977373
H         4.43831970209642    2.91150011052383    1.97176307771242
H         6.15002304183377    2.95538061427830    1.20795769192030
H         6.99384139811007    1.51921622777583    2.70017346231656
H         4.80299414107252   -3.63328584624142   -1.23442263323017
H         6.79731357002692   -3.25027526176735    1.55656744968126
H         8.26574923996380   -2.07731256306638    3.08591260507926
H         6.97669014181855   -1.18369249373178    4.07628549485570
H         8.20937858003250   -0.26780677920224    3.23778290074128
