30
 energy: -48.312375500734 gnorm: 0.119255525454 xtb: 6.4.1 (79825abcba525fcdf90b791dcacef51065a7a4e7)
C         1.32341224805100    2.12709882108528    0.96196754801784
C         2.66429813217000    2.26996256431337    0.31890999130537
N         3.14629353652846    3.34731660502517   -0.19499127516319
O         3.44651291331455    1.17976445829595    0.43245683134776
C         4.80304850739575    1.35837068058586   -0.01055520362943
C         5.68113765136098    2.16270445049100    0.94861088974314
C         6.06749683339923    1.18610468820780    2.07859360669671
C         5.04062291840322    1.08571881867881    3.12456299954054
N         4.10219537760352    0.95288068938046    3.79644681054078
C         5.91869051293258   -0.17065480520069    1.43260739113472
C         5.31757681387005   -0.02302871738990    0.24496484782858
S         4.86613128903941   -1.32367633993983   -0.77506703153044
C         5.50918089038811   -2.74140608262331   -0.00270082191688
N         5.49352837331088   -3.91947542155331   -0.51881492468986
C         6.04014723997386   -2.62669813356368    1.37069111349860
C         6.18664071568399   -1.46757936800056    2.03913736921315
C         6.51878248588062   -1.59538949473826    3.50165643586267
H         0.85306373531795    3.11355758607660    0.95421894032094
H         1.43325000798248    1.62081257711295    1.92491069938665
H         0.75562958279681    1.41629570660060    0.35490675299257
H         2.52724510310240    4.11574458806062    0.08561554157474
H         4.77415489013294    1.66328159298019   -1.06352854904293
H         5.10771446016622    3.04891492123817    1.24748564282814
H         6.55389149161207    2.50997971611774    0.38059902060969
H         7.10453874056802    1.34226539891766    2.40262881407248
H         5.10704226637164   -4.03162857593566   -1.46459964833528
H         6.23972203596245   -3.60160999185465    1.80468002331045
H         7.01602756749928   -0.68156168635338    3.84913105226818
H         7.15656767371569   -2.45905804082420    3.71184968414715
H         5.67508776286726   -1.85164866753023    4.15001776209108
