30
 energy: -48.307944383183 gnorm: 0.130483535186 xtb: 6.4.1 (79825abcba525fcdf90b791dcacef51065a7a4e7)
C         0.90932581866689    1.39209667248169   -0.15769953440485
C         2.26682899013321    2.01359212196096   -0.10444010552464
N         2.74215482268824    2.96567674356802   -0.82880605748013
O         3.02510244693307    1.28394937546952    0.73575485961515
C         4.44401475266948    1.51724575050676    0.71107055079545
C         4.89972180656580    2.13055529210223    2.03552342908057
C         5.71101205945007    1.01631660821849    2.72846045600517
C         4.98901106953969    0.47160798775365    3.88630604386605
N         4.53433674120416   -0.04002941605336    4.82503842774327
C         5.86468932749776   -0.08544993713129    1.70731815266624
C         5.14537523000825    0.19929890911671    0.61409755765243
S         5.15681700199388   -0.70123996411389   -0.84358936003503
C         5.87409893142159   -2.21099962972911   -0.36803456576332
N         5.94482931928422   -3.25827346742147   -1.11145965018475
C         6.44549400337374   -2.32800391171993    0.98883914075997
C         6.52793649436989   -1.36395682452468    1.92460273276984
C         7.34464333032557   -1.61143120696116    3.16450675366274
H         0.84159684326124    0.46961060049041   -0.73978276838250
H         0.26347982860416    2.13593215403194   -0.63229551016387
H         0.47991580029687    1.33797975810286    0.84670049854511
H         2.17329804338230    3.29103197982068   -1.61810235635393
H         4.68047529553282    2.21226258333537   -0.10354370278892
H         4.19514502068561    2.45881774866599    2.80968399460526
H         5.58169559194266    2.98023808863578    1.90177830611033
H         6.65990799204212    1.35619961964361    3.16310622473483
H         5.68797092469962   -3.23091280548967   -2.10631327876405
H         6.87197647032114   -3.32353049923120    1.06413275977399
H         8.38896136723281   -1.43725148338166    2.87791678938271
H         7.24394381361888   -2.62572976185737    3.56191404509047
H         6.86097879085469   -1.05355240430975    3.97240638864835
