30
 energy: -48.307953409521 gnorm: 0.120437485957 xtb: 6.4.1 (79825abcba525fcdf90b791dcacef51065a7a4e7)
C         1.03194334679925    1.62837983927623   -0.00965364776313
C         2.48364836998903    1.55380118519658   -0.35447033644998
N         2.91094149444484    1.70292649183849   -1.55957946533688
O         3.16193069556438    1.44027416897891    0.80325563790024
C         4.58087881113119    1.66044850651159    0.72289315000588
C         5.11330515942571    2.25209600727156    2.02844603013575
C         5.90542850902935    1.12153890381322    2.71711332217166
C         5.10275849017279    0.66594066495675    3.86024513686979
N         4.45911423340718    0.21630074636784    4.71655468409704
C         5.91237057610540   -0.03101516507472    1.74150646833518
C         5.17828194504060    0.28989244485423    0.66830652577407
S         4.71235961490368   -0.78478649287540   -0.58226688882293
C         5.71301162105854   -2.17319125237624   -0.28052551118086
N         5.72683207768673   -3.15799400692684   -1.10783364419552
C         6.43140024851264   -2.27893421814341    1.00556348779650
C         6.53414583370021   -1.33075503075913    1.95542490702410
C         7.34003089472173   -1.43263594794644    3.22262071370384
H         0.82863233316347    1.31629815155532    1.01779868867656
H         0.54783988802161    0.97273689486806   -0.73864320335003
H         0.60129458442862    2.62886591814595   -0.10819436670331
H         2.11504624497222    1.68141103358723   -2.20651883343907
H         4.70767489858656    2.29823765655224   -0.16011653101715
H         4.36187265433001    2.77055026272639    2.63677457927566
H         5.88669185064787    2.97523933375732    1.73883663959125
H         6.87893486930222    1.49244601186226    3.06287935948958
H         4.99402880421600   -3.10209831209518   -1.82639723744382
H         7.07251872516989   -3.15420130213445    0.96677834121300
H         6.83221827479720   -1.86207380130698    4.09484891114100
H         7.67532739719040   -0.43721929027671    3.52855609218042
H         8.16096971160557   -2.14782517778786    3.11114963741830
