30
 energy: -48.306760760969 gnorm: 0.133369614159 xtb: 6.4.1 (79825abcba525fcdf90b791dcacef51065a7a4e7)
C         1.06336404607451    1.73317819376584   -0.82672322208298
C         2.54608478795079    1.79837898167404   -0.65585462416199
N         3.34808616121077    1.81760613426954   -1.66259685451328
O         2.91293888561195    1.68884099912294    0.63515438070397
C         4.32631737400165    1.55893668575216    0.86717755187976
C         4.62013906523313    2.01921721606851    2.29539447885032
C         5.90723071217858    1.24097266173196    2.63834046377579
C         5.83584035669610    0.81227282361025    4.04180730139008
N         5.79838245902906    0.65032480342624    5.19162894080904
C         5.87811546967793    0.05639316943328    1.70230545394848
C         4.88622818681350    0.17274683625690    0.80997850547085
S         4.45741627543176   -0.99289660290957   -0.37042313406042
C         5.49541375573865   -2.35932550502009   -0.09573555512655
N         5.26207093927421   -3.52302519701310   -0.59153823482281
C         6.39839988361382   -2.29984757852051    1.07146923419056
C         6.55419950625760   -1.22354568017002    1.86465127156948
C         7.51220392399037   -1.32659835910346    3.02103498723688
H         0.70729529147424    2.39910503662631   -1.61675179119515
H         0.52378747290625    1.96344927424852    0.09603457766540
H         0.83318405149951    0.69299117285599   -1.07404722426084
H         2.93521114902576    2.12545442056490   -2.54984336437144
H         4.80756002864509    2.24602232387069    0.16086515621072
H         3.86793378011477    1.52599294360745    2.92342815715623
H         4.74256638955491    3.10841380807774    2.35538771668700
H         6.87353556097342    1.75628042288305    2.56381702184714
H         4.53228297172176   -3.59094356192678   -1.31213188195434
H         6.88715312888568   -3.24744417221219    1.27594555390114
H         7.09197344114483   -1.00011362723201    3.98014217794973
H         8.45265108056335   -0.90598607922939    2.65290597599856
H         7.76635812076767   -2.38232577502217    3.15780938220928
