30
 energy: -48.310579288049 gnorm: 0.130099557081 xtb: 6.4.1 (79825abcba525fcdf90b791dcacef51065a7a4e7)
C         1.09639800821554    1.89647512200432    0.83621696259153
C         2.39956170275188    1.96786348780562    0.10918456303220
N         2.72409091268763    3.01133037445212   -0.57122961758736
O         3.21733783679520    0.93721061133261    0.39603225736261
C         4.57186790604527    1.21074423213995   -0.00243518840885
C         5.23856956595977    2.12197712910309    1.02865959546554
C         5.67717712831270    1.23780099920100    2.21429757853715
C         4.63969541075230    1.06108274289805    3.23948129717591
N         3.79622475187097    1.00335421059549    4.03631548862851
C         5.82959681204195   -0.07820931117711    1.48964391940386
C         5.23740008799731   -0.09718341469123    0.28857399796165
S         5.08381618134095   -1.42608241524322   -0.78212285302159
C         6.10863373581599   -2.59741887225052   -0.00898647411314
N         6.24333779508874   -3.78495340197662   -0.48446801141875
C         6.54564428077390   -2.37035698259999    1.38340472725311
C         6.37673136404825   -1.26506990893545    2.13283514361109
C         6.96287415681812   -1.12771621657098    3.51239528505913
H         0.60468976122650    2.87249278004652    0.83512603157871
H         1.36553367962003    1.48853998291883    1.81438081380954
H         0.46890395610766    1.10374706045745    0.41911449798357
H         2.03418796526644    3.74665789549869   -0.76035939538806
H         4.61719291875365    1.56620153393676   -1.03884925508406
H         4.57356603185940    2.88482658802195    1.45214545794652
H         6.20594117935455    2.43571820130098    0.61550639956504
H         6.58187054365394    1.57035905451008    2.73944123191975
H         5.74573233451914   -3.94151972785543   -1.37009455617316
H         6.96004432207085   -3.26743837354111    1.83301254313555
H         6.22588430558599   -0.89966991300228    4.29208328613699
H         7.62994112767127   -0.26063640558197    3.50410272093584
H         7.54803835396219   -1.95954289553675    3.91675798325779
