30
 energy: -48.312462205037 gnorm: 0.123027502691 xtb: 6.4.1 (79825abcba525fcdf90b791dcacef51065a7a4e7)
C         1.00337619142805    1.73250012205726   -0.28893282028773
C         2.47047321231200    1.86885571497275   -0.53579614958843
N         3.14188317635725    2.15021669196162   -1.59746957687192
O         3.10740061993316    1.59119050358532    0.61768131360057
C         4.54165925373949    1.50391103542078    0.55740608981789
C         5.14461046489314    2.20869045566484    1.77302475708003
C         5.92045844132215    1.14401817210965    2.57577894600051
C         5.37403751818385    1.06493269499272    3.93731078837971
N         4.81393875883923    0.64336950690133    4.86375232299616
C         5.77042482948635   -0.12581957750627    1.77251073039158
C         5.10119391725812    0.11876278519111    0.63851981904757
S         4.62652130059383   -1.03036459295037   -0.54052407137381
C         5.39092926467605   -2.45370065455984    0.09964379903910
N         5.39527795721912   -3.59848019608119   -0.48680912881404
C         6.30404658517813   -2.36949280646602    1.25740646514369
C         6.50982610138911   -1.33802156589600    2.09738201711242
C         7.52087050098086   -1.38428606168019    3.21150248732203
H         0.78970417056652    0.66476929450077   -0.19574587962947
H         0.40747400976337    2.07481991294610   -1.13944287710646
H         0.81047565360433    2.23742583640026    0.66184603730314
H         2.58932196972899    2.38449623927729   -2.42947433595751
H         4.81255814565953    1.98130243383462   -0.39194611705157
H         4.36447387165819    2.72741459446148    2.34383245928189
H         5.92766960326006    2.90098630651389    1.43764184589988
H         6.96794353805643    1.47199359848381    2.56885151356453
H         4.86894998182665   -3.57740126021356   -1.36941500368650
H         6.61080855222566   -3.37167834516740    1.54051572749323
H         8.18857281975258   -0.51478226074210    3.24627735329991
H         8.17441965271216   -2.25331743218794    3.09095169567299
H         6.99335043556789   -1.58245714803417    4.14975232842592
