30
 energy: -48.309801314163 gnorm: 0.122121515414 xtb: 6.4.1 (79825abcba525fcdf90b791dcacef51065a7a4e7)
C         1.05836422706336    1.12154384458180    0.49607616297156
C         2.46617576161713    1.46645946683329    0.13412598498815
N         2.85216117207058    1.63090130688930   -1.08287030233969
O         3.31935154977453    1.56914195471663    1.17086710821661
C         4.69093280867290    1.84463249500604    0.83737268995440
C         5.37746580923423    2.23274827933697    2.14734658798215
C         5.63185926055152    0.86979964414639    2.82376107978466
C         4.71504643807288    0.50741472488351    3.91313287079074
N         4.05845447200131    0.17793012347593    4.81315900016870
C         5.60945918620163   -0.13169297769082    1.69382794715684
C         5.24847172931957    0.48416106416867    0.56067388507187
S         5.21427701345691   -0.23787497120055   -0.99285347570042
C         5.97983886543437   -1.77263283780571   -0.71275800821863
N         6.37842354523528   -2.53938587749339   -1.66548371870736
C         6.15838725664156   -2.25796448577826    0.67066617474950
C         6.15253439480826   -1.48112664926581    1.76990502213432
C         6.71934931758771   -1.93760218193527    3.08746594178569
H         0.69358249994268    1.93656835350179    1.12620154931607
H         0.94590251838387    0.19279575000931    1.06214060289575
H         0.50499640513453    1.03774900215456   -0.44355329118025
H         2.09946757214860    1.43929425377626   -1.75308056552692
H         4.64446547671745    2.66125750696562    0.10694622278969
H         4.73319300937756    2.90736119884794    2.72468468617521
H         6.35955908985543    2.64421459464761    1.88065359761835
H         6.54252220235003    0.74703108032229    3.42414584856584
H         6.07586808691808   -2.26098100076590   -2.60750788403599
H         6.59632510072704   -3.24974456223849    0.61398777140320
H         7.68698184687237   -2.42683897083905    2.92191461473633
H         6.10324706310672   -2.73138916444339    3.52012607815959
H         6.91299291109165   -1.20204136089083    3.87443128607676
