30
 energy: -48.309984022710 gnorm: 0.127651120791 xtb: 6.4.1 (79825abcba525fcdf90b791dcacef51065a7a4e7)
C         1.07495885433501    1.54571746692525    0.41009031882776
C         2.50042989229330    1.61495770439411   -0.03166315553286
N         3.02769376336821    1.62296769985456   -1.20598613437255
O         3.28503201630371    1.77477277269445    1.05099256382705
C         4.69350105516187    1.78425380678979    0.76034892171543
C         5.58319960919493    2.20149297096352    1.93181847435351
C         5.87905158959543    0.96094423522705    2.79979997833012
C         4.94114356950514    0.70580138343985    3.90153950312957
N         4.34012837295076    0.49953102170382    4.87414082665172
C         5.69275624627182   -0.08556361514674    1.72725478138454
C         5.16606117436284    0.37556206542436    0.58550990394682
S         4.93640085852723   -0.52643161390168   -0.85310605347299
C         5.71701871040666   -2.05437775512030   -0.57735917999758
N         5.82296028823245   -3.03842155578343   -1.39888234974795
C         6.35818151960191   -2.23971275439680    0.74015734200525
C         6.23526419397521   -1.43471295631061    1.81193330597235
C         6.66761744894299   -1.94993366603710    3.15849704545356
H         0.95179330590132    0.76373751048280    1.16356643284948
H         0.46292237973596    1.23783793340107   -0.44212511954383
H         0.68221364513815    2.44281896292439    0.89702063939209
H         2.35750896468304    1.53427199621535   -1.97762602500717
H         4.85185697373471    2.34975147728465   -0.16576886845574
H         5.08020169347415    3.05464177853548    2.40366535747643
H         6.62004576983667    2.40443799037530    1.63399265288247
H         6.91453794780072    0.93119445874855    3.16273778693300
H         5.35504875238022   -2.95957566059008   -2.31063928260751
H         6.96833675467154   -3.13655355012462    0.78506600345381
H         6.51431431392063   -3.03318572936214    3.08016655729094
H         6.07667888438713   -1.53560100476867    3.98068593566181
H         7.66671202544278   -1.65611560263464    3.49516146689321
