30
 energy: -48.305910823844 gnorm: 0.125088552702 xtb: 6.4.1 (79825abcba525fcdf90b791dcacef51065a7a4e7)
C         0.93439507861178    1.36868840441485   -0.10349212081101
C         2.35239909227517    1.82841876835186   -0.20259121622736
N         2.96745920011041    2.35736425559663   -1.20210286773714
O         2.97919735409892    1.48668314625531    0.93917296926129
C         4.41109537478084    1.61716243728938    0.90767933210563
C         5.02436544257574    2.10355914995597    2.22119027540926
C         5.60862931031032    0.86840117604779    2.93736200024482
C         4.97221469215404    0.20431763554836    4.08303593903908
N         4.72325254972466   -0.48202405375288    4.98673555279893
C         5.75225615150828   -0.09825826673191    1.78619794981028
C         5.15377190106899    0.34013606230965    0.67118541736069
S         4.90015953206226   -0.49701988116305   -0.80217910397622
C         5.96319440515935   -1.84977752263956   -0.55718195138602
N         6.02317505184585   -2.77018122167303   -1.45368933737208
C         6.71441848232327   -1.99240398672768    0.70638785986436
C         6.59314808665836   -1.28612830876585    1.84581982898182
C         7.11540357677605   -1.85201757601410    3.13912340577127
H         0.68918610784011    1.38126436884153    0.96145063098130
H         0.80518983845883    0.38338175757187   -0.55970087134493
H         0.27053025453537    2.01794213104991   -0.68132784509042
H         2.24750863952708    2.66024642619918   -1.86721661304028
H         4.76447023131288    2.25888049956657    0.09166308704772
H         4.26913231848842    2.60456744798183    2.83935116178985
H         5.75850101884747    2.91082598110281    2.10159901628715
H         6.58019760372251    1.04890554020100    3.41518427266625
H         5.62793050388388   -2.60233404772652   -2.38753496663241
H         7.24245326102812   -2.93719155243530    0.62162146730889
H         6.25684893652344   -2.28191024430729    3.66935804301785
H         7.57073806856091   -1.03565455784544    3.70753912665495
H         7.84299914307544   -2.65108419059539    2.96603615242314
