30
 energy: -48.304938063863 gnorm: 0.142497867444 xtb: 6.4.1 (79825abcba525fcdf90b791dcacef51065a7a4e7)
C         0.93210052432222    1.77490790162095    0.23370427466443
C         2.36648330945294    1.42880026105560   -0.00009808833972
N         2.86838939565554    0.93641956904926   -1.07841035248591
O         3.13168672953341    1.64223925910690    1.08718856605612
C         4.55260008667224    1.73312772908745    0.88447410180448
C         5.35204287024513    2.19273396498023    2.10416516302321
C         5.86882718238264    0.91553020359490    2.79811470810067
C         4.85775791986961    0.52570036582072    3.79026941233885
N         3.98489974372311    0.29020521176756    4.51991364162726
C         5.86743099839637   -0.13716439507198    1.71549291057201
C         5.17129773821859    0.38393091321297    0.69692327758591
S         5.02656255953552   -0.41754467525849   -0.81060480885914
C         5.98704048146493   -1.85323274852371   -0.62007426568062
N         6.21342579267787   -2.74824823951547   -1.51570984886817
C         6.54488546728005   -2.19897972203594    0.70301174142995
C         6.37311021928333   -1.49758142206180    1.83895660438195
C         6.90303283501559   -1.86792426347472    3.19823722365879
H         0.74341722806507    1.79529021616536    1.30998111315422
H         0.20484852935930    1.08053906234946   -0.19595379447383
H         0.74654920030901    2.82740101186903    0.00138985654190
H         2.23249005655392    0.89379533995409   -1.88231203667335
H         4.67189829605046    2.32230168420251   -0.03269565097303
H         4.69895118139878    2.71297148673026    2.81573626866986
H         6.17227608196910    2.85163463749372    1.79110887938742
H         6.77055891881291    1.09845322111970    3.39666290027916
H         5.79509725698074   -2.29906696129576   -2.34014663114395
H         7.06432724666596   -3.15097835392175    0.65292734416565
H         7.74369995633227   -1.25488421356252    3.54541617802980
H         7.08074731549464   -2.93925345739438    3.06577652546069
H         6.09936359857615   -1.68851442422397    3.91920173891307
