30
 energy: -48.308976910404 gnorm: 0.136860599666 xtb: 6.4.1 (79825abcba525fcdf90b791dcacef51065a7a4e7)
C         1.00671979748229    1.77878246284355   -0.68693110131932
C         2.45650709272317    2.01099321357990   -0.41106340293369
N         3.30669154289096    2.69238013871741   -1.09663182876403
O         2.86395592123175    1.43954752222514    0.73816243561311
C         4.26995805207125    1.49611739970605    1.03532654294566
C         4.43881200148995    1.73098950771097    2.53676464816126
C         5.64593182449504    0.84856529502253    2.91633108955478
C         5.38703714801530    0.23248503663879    4.22477213403665
N         5.18307109357123   -0.03315525074684    5.33722579508292
C         5.75246237720014   -0.17157330789640    1.80808639740274
C         4.88802327102020    0.14825362031516    0.83644771618730
S         4.67981222543582   -0.71463642622559   -0.62916521487863
C         5.63060275239332   -2.15828781147282   -0.45059299671969
N         5.89207076642285   -3.09255118632611   -1.29513581314610
C         6.54560115965822   -2.19559451218335    0.70814542328756
C         6.66681520553788   -1.30087347552808    1.70645323283082
C         7.63138048836943   -1.58601630617368    2.82624026544900
H         0.62118079026323    2.47680211054139   -1.43427098651215
H         0.48949991661378    2.02950770906512    0.24326783032324
H         0.81002359412435    0.73458229483570   -0.94596322897857
H         3.02644410832057    3.27135653412058   -1.89581292311312
H         4.74526033182395    2.27032233590215    0.42111743192442
H         3.51077311307515    1.41656536320734    3.03011092721249
H         4.56246169466634    2.76831377721902    2.87381948961377
H         6.63245846220796    1.29936460324611    3.08481277816893
H         5.40940302483000   -2.90847530767547   -2.18373387270715
H         7.14843922485200   -3.09533053969776    0.78358389806702
H         8.34318360990974   -0.79005933985629    3.07696195639590
H         8.38241844453661   -2.34282231398079    2.58116647427756
H         6.95956367906811   -1.79947691030971    3.66347303750684
