30
 energy: -48.307556644047 gnorm: 0.131556888324 xtb: 6.4.1 (79825abcba525fcdf90b791dcacef51065a7a4e7)
C         1.02436388918119    2.16582713573608    0.40849214710592
C         2.39034151348141    2.07104451933489   -0.18902723246944
N         2.98485377519981    2.87675522250634   -0.99803356273467
O         3.10840450216834    1.15398774359002    0.48675170380551
C         4.52512408864466    1.24965576841773    0.25849331212065
C         5.22495941369371    2.15861948207707    1.26943763863140
C         5.85698719332578    1.19112958578187    2.29138951063362
C         5.01798198996783    1.11901414453278    3.49532843977103
N         4.30898519497054    1.07391336354661    4.41457243838707
C         5.91263706031303   -0.16125170852263    1.62190780237053
C         5.11451960886658   -0.09451566962592    0.54851095633593
S         4.79374159494165   -1.33168917586611   -0.59274077581313
C         5.74467887680848   -2.67613970940147   -0.03759122944624
N         5.84463059996979   -3.84406194803487   -0.56715088091124
C         6.47658044921758   -2.44670208227968    1.22453675180135
C         6.45882795815071   -1.42419616337296    2.09975303357593
C         7.16062053600483   -1.43677130398625    3.43127270776656
H         0.27882150743163    2.17069926360570   -0.39058949989739
H         0.92065930013328    3.10566023965528    0.95768127832475
H         0.89375606091640    1.31195123025802    1.07929656294494
H         2.34582373904485    3.54778423879790   -1.43826462186775
H         4.79606461985852    1.62408457003171   -0.73596768419475
H         4.52093449353626    2.80806441597808    1.80430160383959
H         5.98160338407614    2.84403778748197    0.86616539451633
H         6.85217408903647    1.45744403548235    2.67023058202514
H         5.53890313850129   -4.23936123661240   -1.46533113451095
H         7.12450786226343   -3.28181005065925    1.47235595859539
H         7.47787233740192   -0.49760018850454    3.90072072880877
H         8.08618452438469   -2.01552131555146    3.35878659408788
H         6.52173198879519   -1.95482538345090    4.15328611194705
