30
 energy: -48.305702215606 gnorm: 0.126881042212 xtb: 6.4.1 (79825abcba525fcdf90b791dcacef51065a7a4e7)
C         0.91187229700664    1.71601495806610   -0.30765388016852
C         2.37040649451930    2.01306299992624   -0.17979272401991
N         3.05524655272803    2.61800009571951   -1.08651815700933
O         2.93827701049925    1.55696297830687    0.95280632178176
C         4.37501865237331    1.49380752360814    0.94125287106877
C         4.82723073677761    1.95953506361325    2.32566431017959
C         5.67448318319805    0.80926572001555    2.90783711661056
C         5.00835852894718    0.28392915164019    4.10737817243922
N         4.51602253766635   -0.19885401041124    5.04238927039278
C         5.76440291688913   -0.21092116183956    1.79816554237949
C         5.07190143733026    0.18796604348668    0.72347644662494
S         4.87680078600876   -0.66559460253352   -0.74938549234652
C         5.85869701398733   -2.07322921909271   -0.47650351389577
N         6.11718113642057   -2.91109718543357   -1.41758235116077
C         6.49961634501385   -2.31435637264707    0.83207155598024
C         6.53370752526024   -1.44623951163007    1.86019994217957
C         7.59384484977407   -1.63082082837150    2.91265146993984
H         0.51457007712179    1.36712259001604    0.64880506824631
H         0.82378478362075    0.82733133015837   -0.93863058801960
H         0.23943282401933    2.52365412034125   -0.61044946886043
H         2.50769277836800    2.87770594684681   -1.91427443014745
H         4.65878344314950    2.17103444217807    0.12675939925758
H         3.92020168648117    1.96379611815166    2.94274568230616
H         5.38370262112071    2.90432691324630    2.27424195638857
H         6.71575102065736    1.12304210510998    3.05665436677429
H         5.56793499272093   -2.84628333110628   -2.28394626186091
H         7.04655650085399   -3.25017982930187    0.89306779244118
H         8.50556447615165   -1.37730598196132    2.35806144250031
H         7.44539257665470   -2.59060231225179    3.41629414036110
H         7.35385105092373   -0.88287674894776    3.67478308731020
