30
 energy: -48.306261062103 gnorm: 0.126985978843 xtb: 6.4.1 (79825abcba525fcdf90b791dcacef51065a7a4e7)
C         0.90901894706318    1.37222557567114   -0.14197685623694
C         2.29143847939159    1.93099162627121   -0.23473868811036
N         2.81241136884568    2.77368385979761   -1.05666499535062
O         3.10545874461532    1.26983281247260    0.60996527340132
C         4.52605084006394    1.47020643448693    0.50938120308981
C         5.30857286649216    2.21186603238999    1.59362898851718
C         5.88233906882125    1.18291538119125    2.58958799716994
C         4.95323003392583    0.84168950662579    3.67536910773589
N         4.33097780136176    0.48629482021837    4.58981803586114
C         5.85825314862212   -0.09496160304476    1.78541879944991
C         5.11389466485940    0.10640424812807    0.69042648195549
S         4.77366229641453   -1.05860057560257   -0.51910153319700
C         5.81582170599898   -2.38165915492026   -0.09080288610720
N         5.81645857744472   -3.38668172894906   -0.89354527999857
C         6.58545045754978   -2.34999322784317    1.16933893926663
C         6.59637662402235   -1.32439936594470    2.04104696618220
C         7.38584785063105   -1.36085587880759    3.32207066134396
H         0.64513770153107    1.06946298694232    0.87443357334278
H         0.77838288831357    0.44440002378273   -0.70564659248338
H         0.13853057310452    2.07223358721087   -0.47735347956822
H         2.06501515839275    3.06821014602332   -1.69470565582952
H         4.72723980059020    1.81733058819049   -0.51120009949575
H         4.66300908288136    2.87466718975370    2.18307898633883
H         6.14014065744446    2.81530696058688    1.20724717000006
H         6.81648566953431    1.58067077416586    3.00672306450028
H         5.42613070329060   -3.09278207045160   -1.79782716595771
H         7.06174381019389   -3.25262949421015    1.53950378383918
H         6.85333949964672   -0.94928249366512    4.18816231114856
H         8.19320207028150   -0.68446395049765    3.02618615706131
H         7.67202570807237   -2.38388481710285    3.58546387634738
