30
 energy: -48.309584245599 gnorm: 0.123637997244 xtb: 6.4.1 (79825abcba525fcdf90b791dcacef51065a7a4e7)
C         1.03158232483560    2.16059465513717    0.06116622810936
C         2.49897497932463    2.20515319160589   -0.21574775663397
N         3.07838624983541    2.93785515388042   -1.10148824952824
O         3.22166172365201    1.43533799688155    0.61995146432677
C         4.65653768592372    1.49890351656644    0.54620156680291
C         5.18538764954708    2.11210052713904    1.84323668035165
C         6.00466806532857    1.03326990538987    2.58133256386543
C         5.33230286755626    0.51592019590237    3.78086315819543
N         4.51151425352048    0.20656506255951    4.54265415675035
C         5.93159778625379   -0.17893608737286    1.68386101086531
C         5.14357970737312    0.08704283047056    0.63414264084723
S         4.62201899720487   -0.99631235424052   -0.58662281133880
C         5.46904430207303   -2.45464504090162   -0.16729731547655
N         5.52311361466879   -3.56112884732648   -0.82093041146794
C         6.26212296374838   -2.48258841687353    1.07830855082635
C         6.45909398863051   -1.50374781235970    1.98103249573188
C         7.34288268364119   -1.69310091052812    3.18464312231798
H         0.46672007159249    2.06886021688879   -0.86991061415713
H         0.71852122320345    3.15113791876874    0.40243796147014
H         0.88652489449666    1.30353061243152    0.72489855317953
H         2.47713157534923    3.46844266375188   -1.74134168848488
H         4.86615855701436    1.88850624739558   -0.45720621354416
H         4.33037983716302    2.44973075945927    2.44196595023979
H         5.81887335099800    2.95526279128704    1.53875331819896
H         7.02817890120926    1.38986727545482    2.75483985543492
H         5.08679315306287   -3.63704470717739   -1.74846467966925
H         6.52975888092034   -3.50061151536444    1.34407083288753
H         6.86773256929751   -2.03506237403498    4.11220296402368
H         8.02867235805634   -0.86767255306585    3.39732845332614
H         8.01472040596007   -2.48730690438995    2.84444776262691
