30
 energy: -48.307510309112 gnorm: 0.135498697883 xtb: 6.4.1 (79825abcba525fcdf90b791dcacef51065a7a4e7)
C         1.23661173392422    1.67194459904710    0.55414865296421
C         2.57227860875038    1.26142800236807    0.02558631306460
N         2.72324221545212    0.80849090181988   -1.16989006949497
O         3.54884776843808    1.77728320068292    0.79596988461285
C         4.86700307906762    1.67171941112383    0.23057487340178
C         5.85841095007905    2.34873623433385    1.17754456877729
C         5.94708436923897    1.35087382659129    2.35069804947860
C         4.76681843210593    1.58877219542316    3.19270516534338
N         3.85539987101063    1.56323055333679    3.91269397709810
C         5.84102511775141    0.03824748732758    1.61177901405171
C         5.20206215256159    0.23031655284322    0.45054616220593
S         4.90266471803118   -1.05055094468905   -0.64749388437697
C         5.63394262451861   -2.46075840239549    0.05718158816722
N         5.44689501518493   -3.63865582031236   -0.42452060282174
C         6.32585030305424   -2.34874478497341    1.35718362653197
C         6.25201467230732   -1.25576004125791    2.13934070370123
C         6.89391841142381   -1.33386260868012    3.49855929702135
H         0.51145876597812    1.08520280063128   -0.01530362283367
H         1.07052658252287    2.74858584939513    0.45976143207479
H         1.25630585882048    1.42524630430740    1.61946228004747
H         1.85517736661583    0.55439336790158   -1.65397743202150
H         4.82327901404954    1.92393881271316   -0.83574212802625
H         5.44569896145284    3.29178833679228    1.55679490774856
H         6.81730546608466    2.39971522080442    0.64569937669937
H         6.84444593537152    1.45491357565839    2.97420333460884
H         4.95942718539450   -3.72343201874680   -1.32543496940968
H         6.68781151985312   -3.33160421639745    1.64284254261061
H         6.84146490795700   -2.37229977830224    3.84780050066532
H         6.15612540909379   -0.82577931175517    4.12656197582140
H         7.86277486706498   -0.83152062021991    3.58121311403106
