30
 energy: -48.317124236454 gnorm: 0.123763264169 xtb: 6.4.1 (79825abcba525fcdf90b791dcacef51065a7a4e7)
C         0.89409067738065    1.60061892995299    0.75043411513834
C         2.22728298910445    2.04901390268607    0.24699767991525
N         2.66682227888865    3.20019535900319   -0.12541645481725
O         3.10684565567056    1.04576465017656    0.42905599653373
C         4.49733881361485    1.29170558166256    0.15630967297700
C         5.12698706056661    2.11926260879184    1.27732951516423
C         5.61545518954285    1.09531954365651    2.32271032850839
C         4.60572016305189    0.98107047524638    3.38383322026966
N         3.86504703894330    0.86817923395324    4.27174032648131
C         5.79836016579634   -0.16955524696317    1.51842453777924
C         5.24144106032944    0.00324645292804    0.31276830960655
S         5.25035271227523   -1.19790190790941   -0.90916284941845
C         6.26209183537701   -2.42987437829628   -0.21731900924904
N         6.64305371936819   -3.37677146635273   -1.00008346388839
C         6.62023696022902   -2.47354268332924    1.21485204975342
C         6.44880787931494   -1.38525102595761    1.98820232145744
C         6.86613378268306   -1.51744171850889    3.42833444798175
H         0.21572835484907    1.29840804855784   -0.05136498947739
H         0.31923806869625    2.44168686475398    1.14767310698630
H         1.04632416264875    0.91887736613313    1.59197700742713
H         1.94588133858287    3.90490627206185   -0.31533592448243
H         4.57749851553088    1.79615869429806   -0.81408195964373
H         4.35349866262560    2.75582491084158    1.72455813559787
H         5.98774031360935    2.71097971169574    0.93982159267768
H         6.53258591504784    1.34466989601394    2.87183382883660
H         6.49803147048493   -3.25651240425355   -2.01051154785144
H         7.16792372083479   -3.37316429627896    1.47819569854691
H         7.48866879609401   -0.66643322643855    3.73050541098956
H         7.44540084187513   -2.43159756725667    3.58846974058801
H         6.09173586426575   -1.59634959461232    4.19771304259997
