30
 energy: -48.312376665743 gnorm: 0.126146779274 xtb: 6.4.1 (79825abcba525fcdf90b791dcacef51065a7a4e7)
C         1.03078410751336    1.37577399168548    0.25642202735410
C         2.33894670292082    1.76040683525342   -0.35405010061255
N         2.57261317274237    2.16798039699712   -1.55254481343967
O         3.28974901400070    1.46228191109584    0.55169889493440
C         4.69315100637380    1.48077791703959    0.23790057261084
C         5.58340986925412    2.31808232653669    1.15678762874001
C         6.15559120616236    1.36397579866253    2.22551149211537
C         5.31706431440557    1.36598828221686    3.43193924297756
N         4.54448793326542    1.46400505940177    4.29405206223273
C         5.93667843334725   -0.00224295198444    1.62072942429154
C         5.24566509907949    0.11153867218937    0.47916021695622
S         4.90812055476660   -1.24571526971611   -0.51072752250287
C         5.69913947275626   -2.63702655358777    0.16644450443526
N         5.59887984303998   -3.83870133679130   -0.28120697877974
C         6.22813974136942   -2.39960884022810    1.52478176789154
C         6.37111323556486   -1.25638595801694    2.22079689613503
C         6.85607243408651   -1.23865305652203    3.64561819116944
H         0.22076026868744    1.50017396326017   -0.46660956658830
H         1.01564630150658    1.97915909863891    1.16820427441222
H         0.97387346094640    0.34642977989036    0.62159691974547
H         1.64374283578367    2.34746671514763   -1.94931587035930
H         4.76114961709577    1.79260818834193   -0.81124023631585
H         5.03159706807480    3.13635059707816    1.63579591700985
H         6.41946476889231    2.70930122596723    0.56273642444197
H         7.20233448136365    1.53560676646219    2.50784502438105
H         5.05357753283554   -3.93980601515252   -1.14658655959973
H         6.35622277261187   -3.35829838750269    2.01787272840293
H         7.19655661888140   -2.20882817764199    4.02759108667693
H         6.03233216747285   -0.90888795682551    4.28560370980067
H         7.62309169516778   -0.45798048457284    3.65530081504457
