30
 energy: -48.317487170848 gnorm: 0.122686025008 xtb: 6.4.1 (79825abcba525fcdf90b791dcacef51065a7a4e7)
C         1.00623384848480    1.57195065702855    0.83015668065896
C         2.35931703863109    1.89144787881096    0.28335193467570
N         2.84613011578201    2.98905044242257   -0.18074660077483
O         3.23140017970311    0.87668502760035    0.43504936312366
C         4.56654013374693    1.21604158608508    0.02202746402156
C         5.26064537078059    2.20689601391554    0.95713086606226
C         5.68014697185716    1.27055720038424    2.10915928606551
C         4.69031392844039    1.25933604601188    3.19484060982223
N         3.92399450755291    1.41021981237795    4.05490380235444
C         5.82578970248241   -0.08555621475823    1.46109877402044
C         5.27732674779067   -0.08236949437021    0.23929511227706
S         5.24768873343179   -1.34680792878345   -0.91667606631085
C         6.10274550092473   -2.59135526237350   -0.05644362951174
N         6.33413226592379   -3.78326684533987   -0.48102941803472
C         6.38231180633488   -2.43120741777693    1.38490433346536
C         6.28964523581483   -1.30280624291725    2.11288837117939
C         6.78849126880665   -1.23352757382703    3.53132720268255
H         0.24686349461084    2.24344931861408    0.42170243306571
H         0.89900248350059    1.63856455142124    1.91630290947700
H         0.71730384381467    0.54452949441267    0.59127127257337
H         2.30421450745774    3.85903691713605   -0.22426349915569
H         4.48837111631038    1.56088529693938   -1.01601434282142
H         4.64096798585028    3.05078397392951    1.28479276540760
H         6.15630664271198    2.67870017608899    0.53271529740713
H         6.58461991021459    1.61811933341049    2.62488223846098
H         6.00064678554697   -3.91815281010741   -1.44386471046483
H         6.72386918019206   -3.33462271404117    1.88069559573496
H         5.91745330126024   -0.94048087203591    4.13006674431867
H         7.51330330575743   -0.41483144152538    3.56680492826494
H         7.17118728454874   -2.17976038268996    3.92635782380487
