30
 energy: -48.312904834024 gnorm: 0.121633625200 xtb: 6.4.1 (79825abcba525fcdf90b791dcacef51065a7a4e7)
C         1.03158100831068    1.88160588817800    0.38474960371386
C         2.46143482936752    1.67351885160810    0.00511049099815
N         2.98082954732411    1.28201722861905   -1.10577267688170
O         3.26922336057282    1.92716513714092    1.05221411654142
C         4.66231828289815    1.69649956693279    0.77939811602099
C         5.51052485627123    2.19785504480895    1.94866337093044
C         5.85582327388676    0.93996804099056    2.77229601846663
C         4.88621600390378    0.50784307771802    3.78803667751656
N         4.27187607786236    0.21446843719622    4.72943874239095
C         5.67709100610521   -0.15244773943610    1.74520284605883
C         5.09512520838962    0.27364313220341    0.61675774988486
S         5.01016040811567   -0.57843371279308   -0.86739128559678
C         5.77768665695988   -2.10153733134449   -0.53410641868997
N         5.89712607863092   -2.94825324221392   -1.49497713121988
C         6.29951109611589   -2.35803766330458    0.82353691372142
C         6.26761608547032   -1.48033842159090    1.84356818836374
C         6.89748981694958   -1.74748466513768    3.18427978583616
H         0.61558120928607    1.01423317816153    0.90339920357909
H         0.38187368591439    2.06665308986851   -0.47506871104748
H         0.92870646981561    2.73570390896302    1.06008243326635
H         2.23602728658171    1.21213570243297   -1.80779039583845
H         4.89350944345194    2.23634811880937   -0.14670801152036
H         5.08715903700388    3.01917565212354    2.54002037983310
H         6.44232895472626    2.51448283497616    1.46242801165316
H         6.87478197208896    0.98724012921530    3.17767167700973
H         5.34610258703036   -2.70551370077983   -2.32798926431417
H         6.61874098383393   -3.38067942828510    0.99939397920520
H         6.85384120577450   -2.81291716960124    3.44122515548277
H         6.21141437593776   -1.24331467476027    3.87129334206885
H         7.88799164349772   -1.28194639921752    3.19077755874411
