30
 energy: -48.309109231949 gnorm: 0.129187412916 xtb: 6.4.1 (79825abcba525fcdf90b791dcacef51065a7a4e7)
C         1.08417318241093    1.92046482106460    0.53541797302363
C         2.42333910484582    1.61435802248125   -0.05181390737813
N         2.65579487360711    1.28212962667488   -1.27357264601148
O         3.38538726998457    1.70303125864962    0.88620802095357
C         4.74091145063177    1.54346951954520    0.43294993323309
C         5.57526084034204    2.28480170070858    1.47807224350188
C         5.90103849952172    1.16478922839890    2.48768723242089
C         4.89805205344438    1.14488513267921    3.56110296343230
N         4.16563244831180    1.34666138333146    4.44006139988876
C         5.80812201060948   -0.12319757410080    1.70493928925219
C         5.27109204833633    0.14648720172872    0.50807050545569
S         4.92646982047200   -0.90791522409162   -0.79784808724443
C         5.64110893530309   -2.36700515595165   -0.18110868771948
N         5.80837635912600   -3.41475930330755   -0.90822559679553
C         6.23783747585944   -2.47284125054753    1.16574036123674
C         6.32196418725093   -1.44626275952051    2.03228311618815
C         6.95139635402855   -1.63743029073975    3.38612421818999
H         0.55329060347963    2.67581662268070   -0.04938626922236
H         1.27021664305243    2.22924167074715    1.56774267706539
H         0.40865705174590    1.06051191274941    0.55273799452268
H         1.79593019095950    1.23983255130906   -1.83150310564696
H         4.79093841425270    2.01006944488046   -0.55818082579432
H         5.05947468524060    3.01699002762482    2.11161322076555
H         6.51246551845308    2.61427030902207    1.01113039941868
H         6.83070334230514    1.22523474544189    3.06812716753220
H         5.80761908858075   -3.33441939561707   -1.93292238671388
H         6.68588380685851   -3.45453005075117    1.28478316675423
H         6.61200634273132   -2.49602289341188    3.97832832249632
H         6.76056541390034   -0.78752944910052    4.04803555580674
H         8.02072596298152   -1.75706390084678    3.18591444436781
