30
 energy: -48.313788732895 gnorm: 0.131857725870 xtb: 6.4.1 (79825abcba525fcdf90b791dcacef51065a7a4e7)
C         1.01124926451492    1.37102912275306    0.54091262474353
C         2.40333095297980    1.45948451330527    0.00594323133111
N         2.74638544363348    1.62253359138923   -1.22403011560149
O         3.35543590334350    1.55778648953200    0.95310618516971
C         4.70357884526808    1.68106376896708    0.46765583873270
C         5.45468009026749    2.40270947012281    1.58706078699413
C         5.73190487774054    1.23426690106500    2.55544601208453
C         4.65585523716304    1.06046614009510    3.54059063676846
N         3.72872963110368    0.81188660098579    4.19508774288727
C         5.81648999051397    0.03465478120706    1.64220221943119
C         5.28028010302102    0.30078896895340    0.44417141563146
S         5.09367736482742   -0.88149877312053   -0.78193122277458
C         5.85605994782557   -2.34102829535725   -0.22644359911600
N         6.00233001376464   -3.40300904045433   -0.93726581158725
C         6.34839069392640   -2.29037949967713    1.16507856799110
C         6.42726496239477   -1.23815569451351    2.00080652779152
C         7.12912494993379   -1.47833131575196    3.31051033439186
H         0.31078270718322    1.06839975578439   -0.24148799501963
H         0.68426561611588    2.24498550647986    1.11094029287850
H         1.02492974373066    0.64590846625550    1.35954191273835
H         1.91585346888095    1.59501579254473   -1.82561313120490
H         4.69297695080666    2.12766667180857   -0.53383898657443
H         4.82818081147115    3.16967152842942    2.05905354426168
H         6.32747252133994    2.97356656129740    1.24458093540998
H         6.58493623698623    1.41218309102467    3.22292209150191
H         5.54240890312620   -3.28560694632821   -1.84893895862074
H         6.73130659930901   -3.26060404407857    1.46619225676146
H         6.62608768325169   -1.14417370373956    4.22613295829383
H         8.11081687883795   -1.00625763292708    3.20901183575770
H         7.14975729587415   -2.56296641341926    3.45543450214867
