30
 energy: -48.306029300364 gnorm: 0.131749918681 xtb: 6.4.1 (79825abcba525fcdf90b791dcacef51065a7a4e7)
C         0.86052474174794    1.60215435712340   -0.35394678169144
C         2.23519049543690    2.08501880370652   -0.02372864941872
N         2.76165915871225    3.25931894604768    0.00718624978245
O         2.96467257818867    1.07050434540808    0.47816881097290
C         4.38345196904416    1.25869863069190    0.33675947290601
C         5.03533687121326    2.10602424632327    1.42995585140642
C         5.72204525606278    1.12872107578619    2.40627114642502
C         4.92902657507046    0.83253245749972    3.60710126904296
N         4.34812700352297    0.90657544407021    4.61049221369657
C         5.90655157170040   -0.11954946758068    1.57680390466894
C         5.06377023876200   -0.05851876628667    0.53775586237615
S         4.82042908196298   -1.30947287332343   -0.60760488474065
C         5.92819383493319   -2.52547528023842   -0.04705570146953
N         6.15329592581762   -3.62912329992729   -0.66814848551857
C         6.69566721501346   -2.36480224132864    1.20452625462739
C         6.61153913593949   -1.30892944682410    2.03512373663653
C         7.50133191926546   -1.29852615770082    3.24911557868389
H         0.20076784782042    2.02151523281897    0.40975863017496
H         0.99915475454534    0.51752321121160   -0.35651661884215
H         0.67313529496319    1.99912817251157   -1.35566431488284
H         2.25698022194790    4.08938612727602   -0.32255661707820
H         4.57106644335861    1.65476005846174   -0.66847409561575
H         4.32591684562158    2.73775668283424    1.97872413365464
H         5.80459853377311    2.71091730858955    0.93268556648142
H         6.56967070874122    1.72417626745452    2.76932087285433
H         5.79801646162921   -3.62736070008106   -1.63263383297266
H         7.14258309643345   -3.31858875922629    1.46756064267287
H         6.81130684852567   -1.13608564792705    4.08610484467168
H         8.19824554122838   -0.45603515180041    3.21176829609337
H         8.01728815166241   -2.25083784361915    3.40644829148531
