30
 energy: -48.313735622056 gnorm: 0.126829664897 xtb: 6.4.1 (79825abcba525fcdf90b791dcacef51065a7a4e7)
C         0.96221518384702    1.36320289828843    0.46170565126923
C         2.32126586511408    1.95606958015675    0.27895345687769
N         2.58419961580352    3.20709248710188    0.12758193828420
O         3.33151471980914    1.06676415419607    0.23631702849326
C         4.70689646284336    1.48072071728590    0.16342203219817
C         5.09372845534696    2.18506372390646    1.46428900489821
C         5.74451821960378    1.13807008337530    2.39173627782303
C         4.80095083661751    0.85052283207581    3.48058726734029
N         3.94372856609823    0.60190078861268    4.22427881586543
C         5.89227668007217   -0.07691602026029    1.50730763308521
C         5.33612941219061    0.13098404467981    0.30684784109222
S         5.12469555242267   -1.09376920299625   -0.87265524386715
C         6.06554359313891   -2.40435967282644   -0.22676240616641
N         6.15682681195838   -3.51497896895486   -0.86914725224429
C         6.62384836845792   -2.36598134434023    1.14002633553327
C         6.47717202197715   -1.32440062904517    1.97992675199126
C         6.93417694570485   -1.45547610101165    3.40806586384480
H         1.04602554391746    0.29274959737289    0.66540693435161
H         0.59225628369982    1.41017777130103   -0.56619190228682
H         0.22737876443585    1.84597822433547    1.11215507384449
H         1.74746397950691    3.79759607282827    0.18776252632669
H         4.80471257258397    2.06810713604223   -0.75742951081185
H         4.30740328695134    2.70705061037322    2.02351319046637
H         5.79540211986783    3.00525027236166    1.26457683421866
H         6.73643087314692    1.46347988845327    2.73093922731153
H         5.79614564444560   -3.53334129443872   -1.83145204069224
H         7.18387084488968   -3.24849708424198    1.43357428277524
H         7.67860467530223   -0.68435748703951    3.64103792448780
H         7.32554666535062   -2.45397782578162    3.62416434832313
H         5.98772184208053   -1.28890011089743    3.93183790077473
