30
 energy: -48.315976572532 gnorm: 0.118452588000 xtb: 6.4.1 (79825abcba525fcdf90b791dcacef51065a7a4e7)
C         0.98913235274754    1.48081471440781   -0.30259074945486
C         2.45896618667264    1.57593827136494   -0.55248678788783
N         3.16931726502541    1.83749648986677   -1.59368535278706
O         3.21192552438627    1.55575110866407    0.56372531883866
C         4.64610172053348    1.63082503373966    0.48723222231839
C         5.08062726740285    2.29653051535753    1.79337796560652
C         5.91327543489442    1.24489362033392    2.55537422477409
C         5.42071289594621    1.03818205354186    3.92404210365380
N         5.13798415525373    0.86661831545183    5.03775229758253
C         5.84449035665808   -0.00488621682285    1.71065132274428
C         5.18090332747182    0.23619478122545    0.57260117273443
S         4.81750751715086   -0.92011866928376   -0.63852847027853
C         5.24476418153488   -2.40535965800128    0.15616073349554
N         5.01310982753746   -3.53696192255777   -0.40977098889635
C         6.07438452805309   -2.35828070096509    1.37714486052616
C         6.44547255837577   -1.27700842362161    2.08776500015803
C         7.45746245274075   -1.43668487799064    3.19048685043093
H         0.64659486174725    2.45332979692046    0.05972284433232
H         0.77038755907128    0.80207876507824    0.52633496047558
H         0.45484322020920    1.18109736694458   -1.20859608325358
H         2.80135645187083    1.74406383468849   -2.54674248199216
H         4.97918620779704    2.15301229576203   -0.41771725498692
H         4.18704314747394    2.55980122462637    2.37277870948718
H         5.66442236204406    3.19496049298292    1.55474914382664
H         6.95902792756860    1.54370880142562    2.70353666623011
H         4.62721592033810   -3.49519699477440   -1.36150633532203
H         6.38746438110862   -3.36050969210394    1.65309352297508
H         8.36303829589988   -0.86112762586254    2.96302524280916
H         7.63625047004764   -2.48225796599466    3.45822976393038
H         7.07491857912811   -1.08606924892041    4.15412102540674
