30
 energy: -48.310503446324 gnorm: 0.127590437660 xtb: 6.4.1 (79825abcba525fcdf90b791dcacef51065a7a4e7)
C         0.82622042849066    1.75500369578856   -0.21549850525531
C         2.30402670843861    1.96724721189787   -0.26980605655285
N         2.95493315015281    2.82797622798086   -0.97164091797428
O         3.03793762742192    1.01040318462125    0.32945100387108
C         4.44873104029541    1.28641030976428    0.37223720094222
C         4.84812415045474    2.14233102645704    1.57468379329564
C         5.67456220070086    1.21488256595310    2.48940830200420
C         5.07980767505840    0.88121469948168    3.79076608925364
N         4.74699478237088    0.53373533178909    4.84822233749399
C         5.91212339008866   -0.04106652501448    1.68542175362454
C         5.14513608835038   -0.02006383312797    0.58773541387918
S         4.75194903412716   -1.27303624010630   -0.51290821961647
C         5.83744130649339   -2.51039684420699    0.04446529962139
N         5.86890477930716   -3.64859759147302   -0.55384502799424
C         6.60215702702529   -2.37358197163500    1.30056248530431
C         6.64391584622960   -1.24956995136533    2.03994751438413
C         7.53968912158619   -1.04146456005035    3.23154224175455
H         0.35284437909269    2.47828499160921   -0.88420467529317
H         0.52348384139991    1.88063022267256    0.82767844099489
H         0.62015792116382    0.73395825900962   -0.54888340267244
H         2.49963161687428    3.45032936210660   -1.64826474463695
H         4.67911472712662    1.89447886632484   -0.51078847923385
H         3.98096704903205    2.64128237054912    2.02478975976566
H         5.52217056211078    2.95607209641871    1.27732246544167
H         6.67682882462003    1.62731680659175    2.66319124059359
H         5.32080575538780   -3.78175962473724   -1.41309698047342
H         7.15917688899205   -3.25347156353378    1.60740573982695
H         6.98744344270956   -0.69943703116225    4.11534902081118
H         8.38655119412402   -0.38072305570736    3.02388916351921
H         7.86992510937624   -2.07081480842448    3.40255168106681
