30
 energy: -48.304095437796 gnorm: 0.145477319718 xtb: 6.4.1 (79825abcba525fcdf90b791dcacef51065a7a4e7)
C         0.94674860966147    1.93304856335424   -0.47653235326847
C         2.43522488208368    1.86807567424453   -0.58664560781445
N         3.18213400506278    2.12883995366664   -1.60214280511402
O         3.01119169931100    1.56752201856996    0.59285194401118
C         4.43667193293265    1.43027414228560    0.72520664469574
C         4.70033849244349    2.07807884305283    2.08492057103687
C         5.86643076563562    1.17523499435660    2.53767132638641
C         5.68812359486696    1.02573578053087    3.98834560080789
N         5.37568704915996    0.83467653775247    5.09088804242398
C         5.78039735191491   -0.11970482519643    1.76568237012032
C         4.98542711491473    0.03869031424308    0.69958703561880
S         4.50291330615067   -1.13214874681023   -0.45465238885894
C         5.64217064016397   -2.39309567381028   -0.09116157942207
N         5.55539048083248   -3.51342460816835   -0.71709962322457
C         6.48888094897544   -2.35002080902832    1.11818320877139
C         6.59374264112491   -1.31109001666876    1.96757352253487
C         7.51935220169867   -1.47331982777495    3.14338985540635
H         0.62243907182574    2.41757338085503   -1.40089574689073
H         0.67769147025496    2.46240142274725    0.44164160202712
H         0.45951601734804    0.98650508724122   -0.22593131869061
H         2.65403201542971    2.22409459546641   -2.47648687601546
H         4.82892068080119    2.00395953377692   -0.12307654350600
H         3.84878279022316    1.87463195763708    2.74595878816587
H         5.05339789680006    3.11052070719415    1.96513029299093
H         6.89498148299556    1.54448395762636    2.43481448619806
H         4.93676723080815   -3.58278427780302   -1.53499515394719
H         6.94462625580255   -3.31370198266200    1.32371770288132
H         7.15115021713953   -0.82294801091219    3.94620761006571
H         8.51165824604719   -1.03849138706686    2.99131273901172
H         7.53388500846803   -2.49944570508639    3.52380600187906
