30
 energy: -48.313591623454 gnorm: 0.121213887883 xtb: 6.4.1 (79825abcba525fcdf90b791dcacef51065a7a4e7)
C         1.02632436946947    1.61490733712446   -0.59638918706046
C         2.51109896206469    1.77680316963531   -0.63018521256469
N         3.30890222923939    2.02964958168038   -1.60828768532522
O         3.03988408252326    1.50499021657841    0.57803197426723
C         4.47683821911004    1.52977302196701    0.63185830378007
C         4.85581212837676    2.18015317024731    1.96278932706557
C         5.86137178239992    1.20191288547697    2.60448798788966
C         5.56734474587633    1.00689675516028    4.03071241329970
N         5.53930185134809    0.72313275339352    5.15695024217202
C         5.84124833114269   -0.03552813636653    1.73928708898187
C         5.01845919776612    0.13666975978616    0.69669805790728
S         4.60924714143464   -0.96112216278447   -0.55364218720097
C         5.35370226562643   -2.37342403487722    0.13280517984152
N         5.16797669019987   -3.52872637953083   -0.40128157300656
C         6.13270884222244   -2.41241503142840    1.38696508597628
C         6.51106275806177   -1.29479305894739    2.03473550706599
C         7.58232370769444   -1.35440298189954    3.09041645517512
H         0.72897316688228    1.36619615192208   -1.61820799086143
H         0.46145401124116    2.51023286629868   -0.32259495456602
H         0.78661644914752    0.73373400238021    0.00545356487799
H         2.93513692079303    2.27121774270926   -2.53261827042237
H         4.91466286127267    2.04487178640730   -0.23158898597410
H         3.92587029498464    2.19346746919755    2.54463139324791
H         5.28703507434538    3.18693285913991    1.88945254058531
H         6.86591019760852    1.64026396073149    2.66441969003736
H         4.62294588050430   -3.59018474318160   -1.27054728326982
H         6.50431656669534   -3.41053776889066    1.59741298380278
H         8.45278494673667   -0.82753749460176    2.68080378460161
H         7.89150331895116   -2.40311870453971    3.12885885727806
H         7.14981889931968   -0.90223660551109    3.98838478852534
