30
 energy: -48.308402622825 gnorm: 0.127137166779 xtb: 6.4.1 (79825abcba525fcdf90b791dcacef51065a7a4e7)
C         0.90186663677797    1.47044830191856    0.05052949449679
C         2.32241166899159    1.78180514736399   -0.29154763811491
N         2.88498223913899    2.41179458150290   -1.26300710156010
O         3.10939036519387    1.41085221405151    0.73623795961342
C         4.53587039506135    1.48228106482488    0.56771087265375
C         5.09138636099363    2.24520983747664    1.77076313528038
C         5.77990331063490    1.14497948017945    2.60462112300669
C         4.95772347363052    0.85799605294937    3.78794707107368
N         4.16792072313751    0.62362958926482    4.60709548089828
C         5.83930082090449   -0.09156469841646    1.73994283083926
C         5.23329185690414    0.15869576797946    0.57214613924888
S         5.10648455636316   -0.93229428032501   -0.74300145869412
C         5.68312707624794   -2.44184008792361   -0.10364631741548
N         5.66500436767465   -3.54640169573042   -0.76249492224806
C         6.48503548257054   -2.31831355364961    1.13044157697183
C         6.65319425840048   -1.27789173099706    1.96774820862938
C         7.45759373186022   -1.36986882734107    3.23664440504818
H         0.93365674559469    1.07619171308280    1.06932279678202
H         0.45815396665130    0.67618749646269   -0.55603332112258
H         0.18992597728144    2.30010569520263    0.08135386208490
H         2.25749079316449    2.75789932844128   -1.99711111686752
H         4.77379222494349    2.06663445912889   -0.32921875619538
H         4.20172835024245    2.63180311405248    2.28317270984657
H         5.79281810256883    3.05217915530496    1.52230603776523
H         6.82515247607400    1.40721678806474    2.81325181036269
H         4.85688190199531   -3.56635962514809   -1.39731644874900
H         7.02366134932121   -3.25487608440261    1.23703671053170
H         6.85073045365104   -1.16929883755905    4.12802604858858
H         8.20302181664792   -0.56915659147453    3.22819211579439
H         7.83440678017958   -2.37285750852623    3.45999982972246
