30
 energy: -48.309138584165 gnorm: 0.131372628087 xtb: 6.4.1 (79825abcba525fcdf90b791dcacef51065a7a4e7)
C         0.76835230741259    1.58895811491956   -0.05118612470106
C         2.17694182390641    2.07710267763886    0.04627401005781
N         2.69352719150261    3.17218804173896   -0.39079967701518
O         3.03140897104289    1.16644121605332    0.55012552068392
C         4.45962855729973    1.31951150656530    0.47866267362157
C         5.16002240033121    2.07052778228379    1.61154217159949
C         5.66918858182318    1.02575317614640    2.62597662375250
C         4.74666225535952    0.76171832171032    3.73855473963426
N         3.95610957927468    0.55388945044713    4.56411738466634
C         5.80947576666668   -0.19259494076648    1.74496289780591
C         5.11032849997838   -0.02067804168919    0.61568719163313
S         5.02019651289506   -1.10608252798715   -0.70708476575358
C         6.10600429448489   -2.38670557796905   -0.25870317951779
N         6.22666877554091   -3.40889400014030   -1.03008962895457
C         6.78682153578950   -2.33880659132387    1.05106098238028
C         6.66301586403109   -1.35326065674057    1.95947081040118
C         7.49138428080153   -1.39689707212973    3.21546334323504
H         0.13865430746011    2.45011946570519    0.18602731361776
H         0.60818051558091    0.83471948347235    0.72413231945147
H         0.47680331441062    1.37231310001327   -1.08278931970530
H         1.98690758478939    3.72679201880813   -0.88632553171268
H         4.59631613503625    1.77700291171238   -0.50854373352646
H         4.49336857506611    2.85400441304860    1.99265411535353
H         6.03135550079324    2.57181926360124    1.17060869206347
H         6.65754153998633    1.27240364369803    3.03483218951525
H         5.63390274659112   -3.25056966838730   -1.85472314224296
H         7.29536304873105   -3.26412727845165    1.30364119084521
H         7.58374063157622   -0.38157723172454    3.62002294433466
H         8.31758484144330   -2.11307694081530    3.17867292412734
H         6.80927651564740   -1.88014494720825    3.92190687332651
