30
 energy: -48.306461390915 gnorm: 0.127403867962 xtb: 6.4.1 (79825abcba525fcdf90b791dcacef51065a7a4e7)
C         0.96748329636648    1.70959712235438    0.63482775878007
C         2.35891039812624    1.48164078634741    0.14099119883204
N         2.79560239678573    1.21572113415871   -1.04040316450730
O         3.26045935153437    1.67117052087175    1.12311782695271
C         4.68068071309377    1.73455065005399    0.90562555560082
C         5.39509025286817    2.15589100869943    2.19018161044582
C         5.72034078614701    0.82991333042803    2.90842720996471
C         4.56698634670886    0.31822724894314    3.66112250220737
N         3.57968477176091   -0.20904698748223    3.97247045008713
C         5.93584142672737   -0.03787649428492    1.69157137286024
C         5.21941531985656    0.36543648893812    0.63435890052520
S         5.01754486306409   -0.39052967470305   -0.89001500202645
C         5.96897996435231   -1.82518630138904   -0.65220923686663
N         6.34988064851359   -2.50628799932368   -1.67469702292079
C         6.44733877455746   -2.13248398700404    0.71088633788683
C         6.49745667405430   -1.37543904852536    1.82273533772624
C         7.07610906430791   -1.85459035086683    3.12703247987677
H         0.87109002538080    1.16904366594610    1.57976106665542
H         0.12278190379123    1.47565556474170   -0.01893099664562
H         0.80937932637270    2.78157218790741    0.78319764686761
H         2.04831429308416    1.06067096181759   -1.72594138121561
H         4.81765466874216    2.38132843852191    0.03071127451625
H         4.68467006321153    2.83054721334768    2.68379221805916
H         6.37575292309383    2.56948717725622    1.92152607521741
H         6.62540289608884    0.88048129638804    3.52741538176727
H         6.05880508574885   -2.19605729135430   -2.61037351995169
H         6.71056209250177   -3.17705661956043    0.84583487291188
H         7.85307593922802   -1.18052612296845    3.50786371650244
H         7.40495595966125   -2.89045995222912    3.25236557819537
H         6.22075737022994   -1.77376010605280    3.80504569366361
