30
 energy: -48.309927678523 gnorm: 0.133709549233 xtb: 6.4.1 (79825abcba525fcdf90b791dcacef51065a7a4e7)
C         0.95331217024773    1.81429995083120   -0.70204682874663
C         2.44670085657408    1.77309570780624   -0.70136723272068
N         3.25000221293241    1.97446390049522   -1.68689429374594
O         2.96861991814521    1.41441185811935    0.48700608432591
C         4.40350436805561    1.38399531525472    0.57936456603736
C         4.86678427627409    2.18650106326889    1.79564956184210
C         5.92998554124284    1.28610709496371    2.45805065662962
C         5.44818948418621    1.22015512961637    3.84445687698192
N         5.14731076499254    0.87658225789437    4.91270298267778
C         5.84053070710238   -0.08268424096616    1.82666652392366
C         4.96226735088775    0.01727971054935    0.82054196808042
S         4.54482013813317   -1.19027388891830   -0.32116922723925
C         5.33230775122170   -2.56707627710951    0.38897049005805
N         5.22918199058899   -3.77972024383319   -0.02735369700401
C         6.38828655966613   -2.40470296175311    1.40869214264760
C         6.66033323985299   -1.26248415442642    2.06684397956943
C         7.84191700853046   -1.04085652778506    2.97257936888937
H         0.71162165141961    2.70994545587198   -0.12429819729977
H         0.63833334349774    0.88438809506758   -0.22069260806149
H         0.55323193355346    1.78925524239670   -1.71961726714687
H         2.85259162553128    2.34457243379036   -2.55725468522878
H         4.82065877068193    1.64800537477600   -0.39983881711015
H         4.05778351128043    2.52897736886855    2.45271653609727
H         5.27983598140383    3.15925037156723    1.49886019969244
H         6.92568049244078    1.74602095806230    2.41432773809726
H         4.64749795785469   -3.91305419882894   -0.86420752508490
H         6.87769396925442   -3.33607717483172    1.67637117563071
H         8.19943101378059   -2.04852254931324    3.21725358604755
H         7.45379951099355   -0.56472532583095    3.87786297008517
H         8.66655441248946   -0.44286054540694    2.57228458680640
