30
 energy: -48.311467075651 gnorm: 0.124021793639 xtb: 6.4.1 (79825abcba525fcdf90b791dcacef51065a7a4e7)
C         1.04860862543742    1.75053791843157    0.79875759934024
C         2.27546512750278    2.07968285928149    0.01237680627594
N         2.55439376758028    3.06376299358953   -0.76921829896019
O         3.16186866864117    1.10810934477824    0.30154530210285
C         4.55859602806909    1.21082044803147   -0.02548949619597
C         5.16415275179833    2.15932332785247    1.00970917435502
C         5.71984756207347    1.27340912638615    2.14383472209774
C         4.72735071791591    1.15013904498503    3.22010319458678
N         3.85415159830726    0.88171023897864    3.93787010928107
C         5.77506225241100   -0.10336275258258    1.52602539091509
C         5.20332502283334   -0.09559203601971    0.31495887833529
S         5.34043413528005   -1.43023350326790   -0.75082044507779
C         6.04858540101717   -2.71899721267584    0.17526262709635
N         5.93648776289841   -3.95523056529991   -0.16182393247326
C         6.58876999416403   -2.36434833924532    1.50331133106743
C         6.51974622686542   -1.18720247546322    2.15246492385782
C         7.12204295165741   -1.03183189563877    3.52312689632552
H         0.67332778199804    2.67676268366505    1.24109302776135
H         1.28438346673701    0.97057401189113    1.52794628209704
H         0.32694904224274    1.31202980727331    0.10373305786998
H         1.74592288797454    3.66368644196187   -0.96647297084099
H         4.72897542121393    1.45785732584884   -1.08024160489393
H         4.40503273965278    2.86862519930831    1.36203989133031
H         5.99040467071255    2.68789004900175    0.51689902130614
H         6.70448857818660    1.65677716322766    2.44107522474977
H         5.49914126740782   -4.13197406724196   -1.07503166504659
H         6.95639266769312   -3.13454104137636    2.17434514697589
H         6.46889828352303   -0.44713061393559    4.18236812390328
H         8.07504668016990   -0.49463001762563    3.53164402477162
H         7.13081564769037   -2.04607699455866    3.93433473303309
