30
 energy: -48.310669993981 gnorm: 0.127741260970 xtb: 6.4.1 (79825abcba525fcdf90b791dcacef51065a7a4e7)
C         0.92970301360985    1.71565314166676    0.48063295237229
C         2.39580771321451    1.58510381571488    0.22489495185466
N         2.95157125166395    1.33071759536663   -0.90803062572814
O         3.21796968154343    1.78270706377982    1.27288704937584
C         4.60321240414346    1.79587625065160    0.88652205775504
C         5.43130523179460    2.18788523865528    2.11068882068947
C         5.64496614890739    0.84795237924731    2.84472594748208
C         4.46963371728520    0.35714221600107    3.57704998975560
N         3.74065796606235   -0.33028154704821    4.16506619038847
C         5.73706620068729   -0.12283347358938    1.69175999044682
C         5.07339951819367    0.39536997319813    0.65030044374414
S         5.02339810066638   -0.44774613236091   -0.84054081763701
C         6.03953808699895   -1.84130694935114   -0.62730880867671
N         6.29065478321038   -2.66923762948270   -1.57911626226732
C         6.70080691078170   -2.09794883666483    0.66812442482682
C         6.34788433331466   -1.44159237614478    1.78905222793802
C         7.05836692978378   -1.88173760974922    3.04089186410911
H         0.66259353971587    1.05333897292354    1.30790626491610
H         0.27334052022378    1.53244119719382   -0.37451105419989
H         0.63640991806415    2.74194121879977    0.71907157706765
H         2.30302458424432    1.25912445335440   -1.69967723776533
H         4.65421137912031    2.50277011238100    0.04970748922213
H         4.81145533073467    2.85305995480257    2.72456014626999
H         6.38579577109998    2.65621905954351    1.83765377487079
H         6.42074195010011    0.83898274239356    3.62121319026198
H         5.84247302569388   -2.45202982009609   -2.47823387659533
H         7.24280678148199   -3.03795494688220    0.63270754641123
H         7.89843259153356   -1.18448143927637    3.14670347506401
H         7.48837988390531   -2.88764523504085    3.03024936921909
H         6.41404031393408   -1.72986902325653    3.91246581375141
