30
 energy: -48.311697145245 gnorm: 0.129999901798 xtb: 6.4.1 (79825abcba525fcdf90b791dcacef51065a7a4e7)
C         0.84649900478844    1.54489412029503    0.16570272297808
C         2.26480003166266    2.01411903401098    0.15312490433898
N         2.80390817598495    3.09839304108741   -0.28370240241849
O         3.05595859537414    1.00650482248181    0.56793387879643
C         4.44583325178824    1.36740983856894    0.48828050922864
C         5.06865093738978    2.16248077455698    1.63630197498448
C         5.64791984613895    1.03645520768313    2.51743499845257
C         4.62669555313308    0.71450337357433    3.52344060412113
N         3.79141984596736    0.46652710797022    4.29190812597834
C         5.92168965509294   -0.11944788374590    1.58513892148690
C         5.23125742185993    0.09443454270594    0.45767114189372
S         5.23283151803790   -0.99702323907808   -0.86318833911191
C         6.03981863370975   -2.40082982067440   -0.23222172540962
N         5.92110420964368   -3.55425669838901   -0.78897972816437
C         6.67922510660906   -2.36059306016833    1.09850325353193
C         6.68361650879219   -1.30933710790846    1.93914509316305
C         7.40225823077865   -1.35950758017175    3.26075494953109
H         0.77558968097176    0.54394797293085    0.59867770741111
H         0.34057082316393    1.57649868471818   -0.80315610749635
H         0.43573329088050    2.15163210834252    0.97766428210842
H         2.09374115754658    3.72661871614092   -0.67541405726298
H         4.54389357795707    2.00489488707862   -0.39859905180367
H         4.25629996111685    2.73315871297769    2.10312298379687
H         5.83609094715370    2.76801557597825    1.13700216989607
H         6.55613695844955    1.35859431649607    3.04299086791149
H         5.42472681196663   -3.37789279363184   -1.67156901204604
H         7.17526238534778   -3.31410111745013    1.25147062235796
H         8.29869977358824   -0.75036019006412    3.09221840324010
H         7.72781188714518   -2.37877639379276    3.48874707899217
H         6.89080511647468   -0.92421278996884    4.12492861082463
