30
 energy: -48.314156389896 gnorm: 0.127480546515 xtb: 6.4.1 (79825abcba525fcdf90b791dcacef51065a7a4e7)
C         0.89982740967041    1.56449682085829    0.40848087110684
C         2.28720364133032    1.86638152701563   -0.05623499948263
N         2.82886118893627    2.62819316126654   -0.94130897676472
O         3.18496712952589    1.10001838728839    0.59183368166998
C         4.56099522338823    1.27749947420206    0.21315729403001
C         5.23665338590747    2.22406531060909    1.20587684940872
C         5.68919949175261    1.30021448015200    2.35547813076117
C         4.66725671122724    1.24649927416720    3.40968253568610
N         3.89637424643001    1.00965047873312    4.24596175415455
C         5.84009438554174   -0.05064627251702    1.69772151357975
C         5.18688520388828   -0.04426730688760    0.52857523602341
S         5.02676276608547   -1.24076570570907   -0.68744479493870
C         5.86596959070079   -2.57674447145486    0.04119271176479
N         6.01178885230956   -3.72598432484238   -0.51778012610904
C         6.51471059915018   -2.35605529472022    1.34951987518877
C         6.55516306243582   -1.24925480599728    2.11449916637769
C         7.33479615401332   -1.20240119435083    3.40119749155152
H         1.00098906174007    0.59217143426378    0.89708942834700
H         0.13963208432293    1.60893099890498   -0.37623454104609
H         0.65059704988113    2.31444091654102    1.16452922434717
H         2.18107975263423    3.26433371385783   -1.41895646337028
H         4.57334964287288    1.70601586129545   -0.79618875252802
H         4.56892749044922    3.01545488051878    1.56830470231455
H         6.18985860047975    2.57324197298194    0.78824981941033
H         6.59860254201599    1.71615532794489    2.80804878419107
H         5.65627348877492   -3.86925387170398   -1.47147884504257
H         7.19773181640119   -3.11318285341437    1.72217183927961
H         6.98127929429271   -0.49067394571994    4.15720191692160
H         8.36695829694636   -0.90901943163204    3.18802394565802
H         7.27263124848852   -2.21203952180948    3.81908256663021
