30
 energy: -48.307484882636 gnorm: 0.136892897646 xtb: 6.4.1 (79825abcba525fcdf90b791dcacef51065a7a4e7)
C         0.86326249629330    1.69029642698759    0.61421277113320
C         2.27612928207557    2.08061245695512    0.32547610508289
N         2.81046945417561    3.16332504263264   -0.12097640600182
O         3.17683019061857    1.08509032482921    0.43015805183063
C         4.57366373358891    1.35125641628176    0.21484360026037
C         5.17943623186883    2.12079308326374    1.38908630899323
C         5.49696572657221    1.05684353139677    2.46009882494701
C         4.39310589136593    0.78183008920538    3.38986243247736
N         3.46733324612484    0.35797059932436    3.94933378903839
C         5.74941021415430   -0.14079197709038    1.57569010758704
C         5.23414122641871    0.01561260893349    0.34945138514293
S         5.01342051021845   -1.25011855734483   -0.78419727898482
C         6.16220612656680   -2.42767181515301   -0.22412594174476
N         6.52501668523506   -3.43128948842802   -0.94216925093061
C         6.70740461406091   -2.29624382275334    1.14217339012958
C         6.57431065304837   -1.26497456548676    1.99692876815560
C         7.23916395863831   -1.37555612266664    3.34279554946060
H         0.62437716212052    0.92047056709820   -0.12381880089159
H         0.24245023455030    2.58986321945082    0.64617099023734
H         0.81669036170795    1.13704760658002    1.55649076056857
H         2.17988920806668    3.97237855446396   -0.10536611717155
H         4.79786725494088    1.80765834058634   -0.75674707130782
H         4.71749305266468    3.05653834288330    1.72746268518629
H         6.12045803994924    2.56983987630854    1.04590735995343
H         6.37320147219842    1.40858889253188    3.01985502850942
H         6.22207797930306   -3.33287543149520   -1.91941098176557
H         7.41731650103178   -3.06630870636799    1.42792642130010
H         8.24262259214465   -0.96748980095559    3.17067584043987
H         7.35138674737032   -2.42592353726912    3.62741607802674
H         6.75036022888914   -0.73790241793329    4.08598504341828
