30
 energy: -48.311070353011 gnorm: 0.129971002434 xtb: 6.4.1 (79825abcba525fcdf90b791dcacef51065a7a4e7)
C         0.88922611618216    1.71372025261376   -0.15378298938652
C         2.34125121734189    2.03178455923081   -0.30333640642719
N         2.87662340380462    2.82515310080113   -1.16417831226259
O         3.09618514049025    1.31319160121730    0.54929697718113
C         4.52226173933232    1.47011456360411    0.44915023942490
C         5.17836632999010    2.22082158620871    1.60844255646268
C         5.89003479235413    1.18443372897671    2.50248374531652
C         5.34540050050836    0.86740495374168    3.82968589787863
N         4.79884524156868    0.53334247277858    4.79891222403433
C         5.84709062014407   -0.09721122093112    1.70512570010950
C         5.07874493168478    0.09250941097888    0.62471978767638
S         4.71785165818609   -1.11713738324032   -0.53392727454205
C         5.68516878538638   -2.47693424543497   -0.04888083053465
N         5.68923178268161   -3.59857781907562   -0.67845634420665
C         6.45723270198985   -2.36775721941818    1.20542626159110
C         6.59312684172956   -1.30718136593406    2.02307453556633
C         7.27555945162140   -1.49191865149058    3.35189863191244
H         0.63284685223889    0.99726620174804   -0.93822669361658
H         0.18658518754018    2.54953298664907   -0.21176924056707
H         0.83317414093243    1.12578001360375    0.76671985273238
H         2.25519683059937    3.36379078892093   -1.77748179980970
H         4.71599485457123    1.88063596709469   -0.54909723905914
H         4.32236661252105    2.63628646354374    2.15448531411881
H         5.89981412450217    2.96972196732269    1.25687726688474
H         6.89102523054116    1.57019280564480    2.73496810496073
H         5.30084540462106   -3.64494993448870   -1.62896370006228
H         6.93246453854574   -3.33751002464270    1.31661893205316
H         8.15635135700875   -2.10536493924518    3.12615138254162
H         6.75244761021344   -2.08937708631636    4.10440904634246
H         7.73691149621497   -0.55063674687975    3.66654864526144
