30
 energy: -48.307139820169 gnorm: 0.144538347199 xtb: 6.4.1 (79825abcba525fcdf90b791dcacef51065a7a4e7)
C         0.96069624642885    1.92806901067796   -0.82985290585257
C         2.44721057818594    1.77916126778939   -0.82674330288645
N         3.29270706093784    2.03334510279555   -1.76356351133941
O         2.95194315509954    1.53522948006844    0.39760431903461
C         4.33858928930105    1.45113114807916    0.76974503628680
C         4.70095583253901    2.06228384372978    2.12369330688424
C         5.87964595172730    1.17742616579104    2.57932261157122
C         5.83684356906421    1.00000761907164    4.03716007960330
N         5.85252752377541    0.98271297030585    5.19870002647096
C         5.80347968359556   -0.12631566748848    1.82123683672497
C         4.93823853177008    0.08140216044762    0.82031859893371
S         4.55045676915691   -1.07682088927494   -0.38138737224385
C         5.36180150523079   -2.53174465227645    0.11352342433240
N         5.27181727859782   -3.66626046014534   -0.48584539287959
C         6.31224706542016   -2.37767351707720    1.23343598278102
C         6.55274297594187   -1.35051923450992    2.06947014499657
C         7.54538457740683   -1.35432579284599    3.20095766320612
H         0.56839277732868    2.43741165426682   -1.71362704156866
H         0.62631917343803    2.60676883039794   -0.04041757691838
H         0.39684489687069    0.99438371211615   -0.74957554659467
H         2.92009491764840    2.22617117590982   -2.69973711338959
H         4.73461338274525    2.04693034225036   -0.06136667542420
H         3.93049456340205    1.78546993151566    2.85394860306068
H         4.94862718621857    3.13016403313607    2.06688046928874
H         6.83946842190647    1.68391790221890    2.41486005427748
H         4.75414802084407   -3.67030627671785   -1.37379853410793
H         6.79671792152449   -3.31639869886820    1.48386108873813
H         8.38666995421577   -0.71813550653435    2.90000348149877
H         8.07702451384598   -2.30989785093450    3.23435787264815
H         7.14845885920902   -1.00338367247592    4.15863799356789
