30
 energy: -48.314128651219 gnorm: 0.117652041657 xtb: 6.4.1 (79825abcba525fcdf90b791dcacef51065a7a4e7)
C         0.77803415320178    1.88289365936360    0.13801011971956
C         2.24331274166214    2.07087449291325   -0.08454298906464
N         2.81848488036753    3.14917117757828   -0.48896736898589
O         3.00961947173404    0.97927574158335    0.10112046115702
C         4.41668918218757    1.23508064958624    0.25299979746237
C         4.71466314664508    2.01985429335368    1.53101966774095
C         5.68773280846442    1.13467099698368    2.33691507526795
C         5.22418903986135    0.91504973163492    3.71368411275353
N         4.71469175642172    0.73526005989743    4.74218217031230
C         5.77717231494493   -0.16455330652669    1.57254957159176
C         5.03833207478967   -0.11039453200975    0.45683998379167
S         5.19447138082575   -1.23968931132961   -0.82232621280120
C         6.06605728673823   -2.52983554609727   -0.05039312892442
N         6.18073827757244   -3.65930404677472   -0.65505445576427
C         6.58979059896705   -2.43295450420558    1.32714310423053
C         6.49310850556655   -1.32486669884325    2.08518732999441
C         7.19856572056070   -1.20424408740193    3.40934589921281
H         0.54609317352987    2.26191161332202    1.13647766120543
H         0.46861476275275    0.84613436685866   -0.02022836075802
H         0.19259956052299    2.47187768188381   -0.57368166021771
H         2.12076862744752    3.84029082012148   -0.78559572792596
H         4.87668658862105    1.69795858973136   -0.62830875990908
H         3.75075093780735    2.20175862383761    2.02223585097862
H         5.14016110226766    3.01973200534950    1.37567197800796
H         6.74607386602345    1.42431731383705    2.30758719407868
H         5.63886275111666   -3.69496493249060   -1.52772724840163
H         7.10287334688462   -3.33115316076646    1.65671081680184
H         6.37950073269568   -1.17255037515730    4.13818100018701
H         7.84296775853978   -0.32649725290594    3.51508621292311
H         7.74260742494112   -2.13887711405153    3.57769581508340
