30
 energy: -48.306626230771 gnorm: 0.120243459237 xtb: 6.4.1 (79825abcba525fcdf90b791dcacef51065a7a4e7)
C         0.89919391745374    1.58968924626711    0.22356957830104
C         2.32687347991782    1.42140809190271   -0.18302670318118
N         2.74387115334598    0.92378351478820   -1.29459699931696
O         3.16277823513851    1.75991173234821    0.81695493192467
C         4.58331924632622    1.64199065385607    0.62588823006810
C         5.33931973737356    2.25850733751201    1.80332756069511
C         5.92315754473279    1.11419980367690    2.65747926306104
C         5.01475925137500    0.98988005332097    3.80550210528898
N         4.28964207690358    0.98907688402873    4.71320497440357
C         5.84113594968066   -0.04818618213113    1.69707876863600
C         5.15308579600929    0.25910705237840    0.58992756402929
S         5.01951571905183   -0.70349727964533   -0.82127910098352
C         5.83618490825326   -2.15781454964085   -0.33339315160562
N         5.90815521553767   -3.20742444131609   -1.07339686367924
C         6.39230820543716   -2.24372843751300    1.03212296905659
C         6.43045235740467   -1.33857910010118    2.02765637291455
C         7.02563625480081   -1.54924199544914    3.39403585068596
H         0.42674535737421    0.62950149788421    0.44542652178953
H         0.34201578759912    1.96931598122662   -0.63729375546553
H         0.95117985800978    2.22357714480607    1.11330247316362
H         1.99551904811269    0.87255237353999   -1.99444498927292
H         4.85897752234585    2.22747602884827   -0.25942400721975
H         4.68419862098073    2.90552578724512    2.39972735889595
H         6.06948272963621    2.89925916540334    1.29221509101115
H         6.99484585507690    1.14495996688763    2.89280643521411
H         5.66760902068641   -3.08800874452796   -2.06553395432059
H         6.64123153084754   -3.27708984351702    1.25310034136267
H         6.38412969341197   -1.28166630527578    4.24253164940411
H         7.94843027197082   -1.01155225762306    3.63113382990261
H         7.46343825560278   -2.55126190908716    3.44037658944553
