30
 energy: -48.307766217120 gnorm: 0.125215238466 xtb: 6.4.1 (79825abcba525fcdf90b791dcacef51065a7a4e7)
C         0.97699498755691    1.27823592710540   -0.05835491980345
C         2.44681751891355    1.36291163412849   -0.31204724000715
N         3.06611124949702    0.95675367156929   -1.36495597758161
O         3.18877559720204    1.85020849231785    0.70053597531784
C         4.61414815161091    1.69820526772704    0.58410210628456
C         5.26150392739728    2.42571568079194    1.76293718995008
C         5.89533170209361    1.26856291112569    2.56240038065138
C         5.05754261618001    1.14864491510814    3.76337023883719
N         4.50557508804458    1.14594799120780    4.78564452649440
C         5.88093668592482    0.06423804516610    1.65155872263970
C         5.13431508881104    0.29559376623895    0.56405837405152
S         4.89964374930385   -0.85161837207643   -0.68685579826883
C         5.58505694304241   -2.32157243267897   -0.06278533354763
N         5.30054998740960   -3.48014222471621   -0.54365754224863
C         6.36823820854625   -2.25670464016233    1.18769780635233
C         6.61188707173935   -1.16354034811856    1.93433318027609
C         7.37018139625830   -1.32522322367429    3.22447433806782
H         0.35902255587106    1.03136242541737   -0.92527602995885
H         0.52931054986073    2.16239196297123    0.40370174298438
H         0.65229990327631    0.46242267908611    0.59369023319906
H         2.55393925601382    0.79922685711609   -2.23977474082482
H         4.91710303717973    2.16007423011656   -0.36323829823334
H         4.41450324054162    2.79886686803147    2.35188314323378
H         5.93951529301598    3.24645062629162    1.49529631303733
H         6.94588064211508    1.42423583861609    2.83980595775982
H         4.61567000480155   -3.42071748775432   -1.30776926015417
H         6.74931665263182   -3.25172561569960    1.39588568533117
H         6.88779140262824   -0.72242507642062    4.00358079701599
H         8.44854046280814   -1.15212477488239    3.16080951573816
H         7.20121379312754   -2.37399883900559    3.48787832490651
