30
 energy: -48.309911590559 gnorm: 0.134543008836 xtb: 6.4.1 (79825abcba525fcdf90b791dcacef51065a7a4e7)
C         1.02501444794652    1.69346176740658    0.32015816898737
C         2.46197365562559    1.67189812373717   -0.08799778613432
N         2.88220601821052    1.73948809381021   -1.30288139452396
O         3.23002098910701    1.64984365290387    1.01785106312915
C         4.66421888851027    1.70760313628827    0.92791242565049
C         5.06998324072334    2.13779800686718    2.33797650488331
C         5.65864889893852    0.83805981185123    2.92452141924289
C         4.69723244517742    0.17228848405111    3.81391806695486
N         3.79293185232628   -0.38981621521566    4.27867486152318
C         5.91289903805977   -0.10477692600591    1.77271680554710
C         5.30791912317209    0.37990468203502    0.68060448865323
S         4.97341147625948   -0.40923325000179   -0.80307961848009
C         5.93964040916511   -1.83854571201334   -0.59454266424517
N         5.87450931277830   -2.83838648172681   -1.40110488713321
C         6.64525952137359   -2.13853246919619    0.66775619824458
C         6.54996027173913   -1.41442626876713    1.79843103267012
C         7.33520339035148   -1.81854377993793    3.01732320282904
H         0.75482762944746    2.72513208862413    0.55899722227342
H         0.86466667089675    1.11011992531745    1.23100969128760
H         0.36976015976008    1.31138387530225   -0.46775003400426
H         2.18655784363437    1.74617607923768   -2.05685195389281
H         4.87095262943079    2.42216690640897    0.12217163591260
H         4.19058557765894    2.46167020070867    2.90830611378620
H         5.78757747801939    2.96632819727722    2.39741664658355
H         6.44261976607064    1.09095551578783    3.64996916690775
H         5.21065784455724   -2.54201339281740   -2.12768786542116
H         7.24927788487884   -3.03686021821779    0.58530143454061
H         8.13214876067472   -1.13976887906394    3.34476068380437
H         7.70949666228876   -2.82276769612051    2.79752005595610
H         6.62309687189094   -1.91382710496630    3.84296683048057
