30
 energy: -48.318334588310 gnorm: 0.126554136494 xtb: 6.4.1 (79825abcba525fcdf90b791dcacef51065a7a4e7)
C         0.96867229195892    1.53922206195289   -0.15902885500483
C         2.44326270011290    1.50981468086280   -0.39699177933003
N         3.04432897522242    1.33662783985513   -1.52208353459061
O         3.26440956070052    1.67992245241329    0.65660488483476
C         4.68951719181369    1.62887721075626    0.47002710139814
C         5.44108224555339    2.35661242276570    1.58517030979672
C         6.03268879065432    1.30970332946022    2.55153695674135
C         5.07624540279465    1.17442857887173    3.65856726580436
N         4.33613156239367    1.01050942231281    4.53895472589317
C         5.94274884663515    0.05338062991810    1.71858922897724
C         5.13579912528842    0.21383904829319    0.66184366196597
S         4.52101793558205   -1.05081597890678   -0.31726004923716
C         5.51633862741963   -2.42222840526322    0.06820675859531
N         5.38118204538554   -3.58138144391462   -0.47268423892040
C         6.42527792609337   -2.28755763390416    1.22448601883220
C         6.51270870843140   -1.24111695399046    2.06659932644362
C         7.47240895363725   -1.30811404109281    3.22422726627082
H         0.45823913175491    0.76492446302858   -0.73722421600191
H         0.71807254630157    2.54883976550223   -0.49595832341628
H         0.65821080784103    1.37449789093775    0.87664514982340
H         2.39492824141087    1.26428099806155   -2.31296110679515
H         4.84110506047348    2.10385308960308   -0.50669056450080
H         4.73300207903421    3.03565683579065    2.07611881560109
H         6.25472345582792    2.95835666194647    1.15993072183518
H         7.04560417648666    1.42231587204775    2.95916636890348
H         4.67458675860572   -3.59150067112749   -1.21906168338422
H         7.08088252269924   -3.14290237989553    1.35562560641970
H         7.79202173420780   -2.34784529570886    3.36522064831625
H         7.00306071166328   -0.95403700985969    4.14684105005414
H         8.31693993650966   -0.65142106078195    2.99317810594626
