30
 energy: -48.311853805959 gnorm: 0.123588491878 xtb: 6.4.1 (79825abcba525fcdf90b791dcacef51065a7a4e7)
C         1.05284254778119    1.18896228866954    0.41747061910460
C         2.47106570737642    1.49718456569548    0.06314007526795
N         2.94998083112959    1.64133122709596   -1.12301668763248
O         3.23247579003838    1.59796576147421    1.16920635552273
C         4.64164133655920    1.75890770696624    0.93109108671983
C         5.28484357650908    2.17043554627535    2.25582832756943
C         5.68090853581967    0.85837290122539    2.96399902315158
C         4.66732691605917    0.42128431714817    3.93364088431003
N         3.66491905496448    0.23408206547233    4.49028613574003
C         5.75995772355968   -0.08709491928370    1.78923098343926
C         5.31871464942525    0.45538563141546    0.64702011268055
S         5.27530982716466   -0.25923968971762   -0.90970055871682
C         5.80739888347775   -1.89496943365925   -0.66213324682795
N         5.90772818083001   -2.65367529603284   -1.69594450040381
C         6.33935274068840   -2.19876291011013    0.68175046851527
C         6.39090554451718   -1.39970465804786    1.76373270110523
C         7.05892660199904   -1.96062791297373    2.99040658451535
H         0.75284187410734    1.96155160823029    1.12985675076426
H         0.87552759510685    0.19887203952008    0.84634159718542
H         0.46325447373638    1.27449316822653   -0.49970515738410
H         2.22887344340776    1.57176849671117   -1.84938290207965
H         4.72792799885979    2.50448803986660    0.13157684634370
H         4.68221252421244    2.93263040725632    2.76514563777832
H         6.20485305143454    2.71621233375739    2.00956189603635
H         6.63724613689423    0.91545746041227    3.49972351983638
H         5.63355537609440   -2.25770710433114   -2.60396271381632
H         6.45408603387484   -3.27691755474882    0.73696416719032
H         7.89813218481535   -1.32240436959981    3.29285870966653
H         7.55918155296295   -2.92299184899905    2.84731501966045
H         6.32358723216263   -1.96767895341139    3.80101641838404
