30
 energy: -48.310909104324 gnorm: 0.120308489023 xtb: 6.4.1 (79825abcba525fcdf90b791dcacef51065a7a4e7)
C         1.04620802280785    1.43965933966510   -0.22321390215233
C         2.51551911385645    1.58449294584563   -0.45137210775196
N         3.10841685458377    1.68488610343882   -1.58957213029414
O         3.21916395533469    1.69491793925967    0.69142053029465
C         4.64074237719387    1.65806298662911    0.47669942950558
C         5.23038081707590    2.30812274687776    1.72879438025083
C         6.02544799580915    1.23555231331746    2.50167360049291
C         5.48387521730405    0.99713824798761    3.84646241889281
N         4.83331539478040    0.80766132970835    4.79017343248417
C         5.90012770257090   -0.02036153873169    1.67269046291269
C         5.18254388577955    0.26728582314347    0.57909163441668
S         4.71800277917147   -0.88966512985861   -0.59633100396298
C         5.40958054932508   -2.34238347323571    0.06044108989261
N         5.09789185480045   -3.49753628352129   -0.41172231950481
C         6.26814051262945   -2.34211075217197    1.26217454809269
C         6.54628421002406   -1.27485553774767    2.03382177504179
C         7.25205405525196   -1.42075040659709    3.35526765635197
H         0.54105305562205    2.25361443978186    0.30279390458860
H         0.87289783388870    0.53794888640801    0.37052968195809
H         0.47145545691603    1.46277446127549   -1.15341076838580
H         2.52399810516856    1.56184742153993   -2.42369377671958
H         4.82631885620152    2.07913463651016   -0.51869918637843
H         4.41800921642355    2.62582415679088    2.39409692072041
H         5.96541473757631    3.06702118433904    1.43090991291703
H         7.01962956178359    1.66782330913382    2.67367852267769
H         4.43888233360193   -3.44825441864182   -1.19895566296729
H         6.71146957889057   -3.31752336423479    1.43727218846799
H         8.34758145555179   -1.42674790491144    3.30182343020589
H         7.09884929464073   -2.43705775070837    3.73013055628272
H         6.83228025745899   -0.68376276950608    4.04700542720921
