30
 energy: -48.308695523392 gnorm: 0.132725993852 xtb: 6.4.1 (79825abcba525fcdf90b791dcacef51065a7a4e7)
C         0.92921476320639    1.98034605805007   -0.35535880319266
C         2.39893038486778    1.80549092510530   -0.55850824110175
N         3.14960855261448    1.89840411694266   -1.60012008505312
O         3.00426088047427    1.53913285870226    0.61448499102709
C         4.43787858433580    1.43489511716493    0.66163808986440
C         4.88913269532567    2.09207999887732    1.96642569926046
C         5.94965065594931    1.15682825520294    2.58326221070964
C         5.69910777214052    1.05772790750109    4.02756366247652
N         5.28891382070637    0.89938726597845    5.10291905580225
C         5.76194867034310   -0.13538135174005    1.82484271761615
C         4.97979593161303    0.04336235377426    0.75250240781429
S         4.52399031968994   -1.09582198224511   -0.44351290384325
C         5.62208274952877   -2.41273560006835   -0.16075589569861
N         5.65641552041773   -3.50854324793788   -0.83343189930540
C         6.50161830560750   -2.34648661092857    1.02386086836365
C         6.53733890043567   -1.36286809606931    1.94204152593885
C         7.32983579388895   -1.44386684227094    3.21914900077260
H         0.60734256728510    2.73041219557611   -1.08212405935276
H         0.72876740255893    2.28532555407363    0.67539721491615
H         0.30615984550242    1.10922305146908   -0.57691761468336
H         2.51916686366554    1.89673283073921   -2.40943040669819
H         4.84948905597619    2.04513755380147   -0.15122066764273
H         4.09152665568337    2.23048789183771    2.70681555183021
H         5.32994562126960    3.09086018349852    1.85214987092393
H         6.94814732177788    1.43522257491232    2.22223324587250
H         5.06555480936815   -3.38061478901253   -1.66468187403684
H         7.06210728406046   -3.25071110879540    1.24033206049721
H         6.75975065978684   -1.03791750858752    4.06370842818051
H         8.26323657672325   -0.87361118211079    3.19803097784847
H         7.65045482704532   -2.43054298231050    3.56776854930563
