30
 energy: -48.308825696173 gnorm: 0.126613314615 xtb: 6.4.1 (79825abcba525fcdf90b791dcacef51065a7a4e7)
C         0.85205349710193    1.69171611700098    0.28473687076837
C         2.26353375662123    2.02291307679899   -0.07573514376380
N         2.77464274609273    2.95222842173961   -0.80528733436973
O         3.06664683808495    1.15015464863722    0.56190649525507
C         4.47454778018421    1.33250142143209    0.33187771004050
C         5.12712232712503    2.16838065895196    1.43344264824043
C         5.68107471564550    1.15730798986885    2.45850375133502
C         4.69342738385248    0.75424496882152    3.46879691692609
N         4.13632900662211    0.42248194170874    4.43279627692927
C         5.89229829821467   -0.09743169247773    1.64533047780680
C         5.19075247937900    0.03135964105689    0.51180843744594
S         5.15562782684907   -1.09573887570595   -0.77829525388534
C         5.97258113341405   -2.47393473818474   -0.10510624277312
N         5.84312558307641   -3.65323184429052   -0.60206272059015
C         6.61305185980287   -2.34978445446823    1.21991170115251
C         6.72147932785413   -1.24635657306372    1.98314656351752
C         7.40655054487638   -1.27944428338197    3.32299664679780
H         0.32325587463271    2.64305158405203    0.38333992616813
H         0.65773137728279    1.09240922400398    1.17844810385561
H         0.34624575592596    0.99147532626189   -0.38605549246128
H         2.06191573794620    3.66052362978755   -1.01212259091198
H         4.65415472435155    1.74820355412057   -0.66686723006386
H         4.43538400120070    2.85079982717984    1.94266896412175
H         6.00372045674599    2.70273326487165    1.04488136219600
H         6.55606379273234    1.56551862086927    2.98061398545257
H         5.35684377293687   -3.69744968180753   -1.50651469365333
H         7.09732309685741   -3.28265640358345    1.49168533181843
H         6.64710469183008   -1.36137998971153    4.11014408077896
H         7.92379504857574   -0.33911656365710    3.53540288640026
H         7.94501865486273   -2.20826623105520    3.53560860616595
