30
 energy: -48.312718207760 gnorm: 0.131353095717 xtb: 6.4.1 (79825abcba525fcdf90b791dcacef51065a7a4e7)
C         0.96085951324365    1.90292674852635    0.19028493779579
C         2.43690529063422    2.00371674630055   -0.01717174573295
N         3.02939721020552    2.39163623166481   -1.09214970786945
O         3.13402620670946    1.69304360452478    1.09223773924819
C         4.53729934651060    1.62209720055897    0.78541558193983
C         5.33292706244409    2.12943345802705    1.98856956586550
C         5.76134192447837    0.87761785364982    2.78185385948371
C         4.86152010942005    0.49680660166652    3.87907898035254
N         4.04470089738006    0.08242431387025    4.59379139665152
C         5.74679285444751   -0.16762010912569    1.69212726770774
C         4.99402396190472    0.20400338912470    0.64864212076715
S         4.91474724905988   -0.79029021389137   -0.74457287404636
C         5.75651580071304   -2.28331749446639   -0.45766628795085
N         5.83078530916654   -3.33219036240463   -1.19848745978697
C         6.51938980327999   -2.35359265665040    0.80501873724657
C         6.44028857971456   -1.44444344024041    1.79447719090411
C         7.29884399950064   -1.69141132317756    3.00588352400202
H         0.69988156020057    1.66685185756522    1.22495774384576
H         0.62350882813247    1.09645735422569   -0.46656454304467
H         0.57789526706080    2.87503582714414   -0.13295391902998
H         2.33817626164786    2.61578331781605   -1.81631432954314
H         4.72153508613665    2.16251321931419   -0.15083554026306
H         4.72099315685412    2.79482992626160    2.61009490419616
H         6.21368822417079    2.70947622388633    1.68402554288287
H         6.75765218562110    0.97339116458789    3.23244716474694
H         5.41612040077836   -3.25762992735258   -2.13601205460721
H         7.22434406281142   -3.17922526274212    0.80512828815033
H         7.02431796773060   -2.62987895425575    3.50286094190916
H         7.19980974202005   -0.97132468849884    3.82352771044051
H         8.35001241487312   -1.83396506187594    2.73646674105021
