30
 energy: -48.310673131916 gnorm: 0.126957454641 xtb: 6.4.1 (79825abcba525fcdf90b791dcacef51065a7a4e7)
C         0.88609563178877    1.67785955826744    0.45405793275526
C         2.25022909420792    1.86953027807039   -0.12413775146423
N         2.56529165545951    2.49426086782387   -1.20467145180405
O         3.24783993647063    1.30281797762582    0.58076970644680
C         4.65052439812168    1.32867537896538    0.26429483862081
C         5.33210603927750    2.22519441799958    1.29855448860682
C         5.85025397777460    1.26418717984975    2.38844863536512
C         4.74897220791454    1.16138885193943    3.35551134182512
N         3.81645821240786    1.29466033410325    4.03549400673352
C         5.94844708997279   -0.06195162735144    1.67294056732722
C         5.21521747879048   -0.02638399069504    0.55279092320824
S         5.01289478167921   -1.29236463909029   -0.58400758528750
C         5.92594383016458   -2.62096729127746    0.06497346012463
N         6.02652961819541   -3.78114844101493   -0.48122094771290
C         6.53962435841241   -2.44644021087914    1.39697386785591
C         6.59310112307520   -1.29759948323223    2.09636092538634
C         7.27505179481549   -1.20029799719767    3.43467752156955
H         0.34052733496833    2.62359258465470    0.40575747487761
H         0.92808529006587    1.34544620026201    1.49491711327847
H         0.34427479642596    0.88965952503351   -0.07633052837475
H         1.78092554447723    3.02404390394207   -1.60032591112200
H         4.84041859748566    1.57138800251950   -0.78812577426832
H         4.67932911774364    3.05802889574989    1.58799928925119
H         6.16615314789059    2.81646333306144    0.89892547714739
H         6.85391768627899    1.59278262124565    2.68765607483143
H         5.47533795907861   -4.01694781146196   -1.31611315314346
H         6.97958587255359   -3.37573659131757    1.74550177808504
H         6.42849435247861   -1.14599482708890    4.12999342952128
H         8.01762386168407   -0.39988970200263    3.50401577665676
H         7.82209649857037   -2.13954222730057    3.56283498267546
