30
 energy: -48.313019452065 gnorm: 0.133775096575 xtb: 6.4.1 (79825abcba525fcdf90b791dcacef51065a7a4e7)
C         0.86172068491890    1.92097676907777   -0.06630646349020
C         2.33956574393848    1.94581355386629   -0.28371197381159
N         2.97956487243015    2.45700670877985   -1.27678221227066
O         3.01447862903590    1.45083747723439    0.77117004140048
C         4.44589330041890    1.52361770239148    0.88992950863735
C         4.71758698757561    1.93858901879574    2.33629543402589
C         5.76678253647709    0.91434004574208    2.81586222111294
C         5.10070234862219    0.28451974839133    3.96401858203274
N         4.49115826623825   -0.16810049662914    4.84339964744813
C         5.92123314741284   -0.12803291495141    1.73427000648872
C         5.15933800893495    0.22379561498066    0.69054650846475
S         4.86038421942129   -0.76039091415244   -0.67983886619354
C         5.90123635607687   -2.14081328077872   -0.50354066676269
N         6.22694125568158   -2.98762917110921   -1.41528921882910
C         6.52562553319736   -2.31996502777780    0.82285731938595
C         6.57309821503523   -1.42717501933942    1.82909271013705
C         7.43587014081633   -1.64073046773480    3.04384968463430
H         0.58578905561662    2.80505350822798    0.51391652600829
H         0.48581807455885    1.03807517396290    0.45793738366527
H         0.26789721024682    1.94468294335822   -0.98443103716668
H         2.35491607614620    2.74178772718961   -2.03911833822893
H         4.75915990283827    2.29928181182105    0.18086839314673
H         3.74265783835656    1.90905148510960    2.83844082843330
H         5.04231570772533    2.97658441696435    2.48480033696720
H         6.76860173628685    1.24897716326916    3.11455482970670
H         5.71316088231911   -2.82654433834826   -2.29081192686383
H         7.05474744081984   -3.23652527922817    1.06488423083361
H         8.27868589679522   -0.95872255772096    3.20998037024524
H         7.79975136808478   -2.66337986374246    3.18042647499160
H         6.84622138640987   -1.48070459980625    3.95190699252753
