30
 energy: -48.309722772647 gnorm: 0.128634243392 xtb: 6.4.1 (79825abcba525fcdf90b791dcacef51065a7a4e7)
C         0.96976981786820    1.28762006532958   -0.47593912802202
C         2.42837929992182    1.59726163726012   -0.56807215613616
N         3.21657233932247    1.77081267775555   -1.57093684038070
O         3.01268732357303    1.59922132847352    0.64513229670330
C         4.44842295509793    1.59707727958183    0.72884158172611
C         4.97738193739184    2.29422693223085    1.98270668540903
C         5.97476296914484    1.29981456943574    2.61219582582457
C         5.50445275307451    0.91611377567632    3.95017240871069
N         5.05441320779799    0.39517055351262    4.88601568752108
C         5.75213122015358   -0.00572980608412    1.88678089236670
C         4.96318049299697    0.19551781416916    0.82344552872051
S         4.55560458062432   -0.88511312057239   -0.44228389998928
C         5.51167152917873   -2.28333675096369   -0.05379111825287
N         5.63028270920909   -3.27885214183822   -0.85961158532146
C         6.29828844445141   -2.23246324074415    1.19518217636142
C         6.58157177555496   -1.19703259158691    2.00726035747813
C         7.49436653397449   -1.33972609755794    3.19556162422565
H         0.29481056451471    2.11255819558476   -0.71738424683748
H         0.78336220572210    1.13403013822263    0.59050915616508
H         0.63216413991728    0.40459020877770   -1.02586794929285
H         2.85240537922487    1.87755378347033   -2.52405355604364
H         4.79398493225830    1.97787416143070   -0.23973419170797
H         4.15800036003196    2.61226437361676    2.63919376519399
H         5.54311479028136    3.21940313486449    1.81261203786891
H         6.99817553167704    1.69503874854036    2.64776930225348
H         5.08934943244166   -3.28673253399508   -1.73356105334211
H         6.76686220411672   -3.20924183173152    1.26569333212068
H         6.87413211393204   -1.34515776984142    4.10018989333887
H         8.06520425407431   -0.40780787889936    3.24603185742786
H         8.11794234501654   -2.23626570991725    3.12322980241099
