30
 energy: -48.313539186573 gnorm: 0.117418049656 xtb: 6.4.1 (79825abcba525fcdf90b791dcacef51065a7a4e7)
C         0.87225848116512    1.79585510641271   -0.36678923859107
C         2.34338050189519    1.76675132022301   -0.62536419486477
N         2.91606102082127    2.20533470060908   -1.69156655133275
O         3.01280924558720    1.21597052455089    0.40506797390923
C         4.42141836703343    1.42224439428669    0.60907817068192
C         4.70975571525666    2.09938188314733    1.94935405224661
C         5.77791968204197    1.23068155528194    2.64524704195075
C         5.42561973968666    0.86922776008555    4.02504245306080
N         5.17815574610759    0.42455538172549    5.06943136028249
C         5.84621938828348   -0.02213400784679    1.80499325705687
C         5.07521656566996    0.08072551768903    0.71476354540292
S         4.79450413108576   -1.03863660193991   -0.55179933847411
C         5.72254475626469   -2.40742219517623   -0.01777057214545
N         5.62184567335070   -3.55066596168714   -0.59856282000517
C         6.56952078798914   -2.29315057170009    1.18674692605150
C         6.61738911512221   -1.23865094160242    2.02195735771802
C         7.55245841032055   -1.22435124652438    3.20138805145081
H         0.42500946051188    2.70360075304017   -0.77952985504586
H         0.66680322490021    1.84319085727675    0.70614928441019
H         0.51423524456007    0.85763177143191   -0.80002978310711
H         2.19623962615298    2.70699763221369   -2.22320005118709
H         4.73850057066398    2.00558337877062   -0.26369496305256
H         3.70917244249652    2.15396063712926    2.39585554640048
H         5.11362231960022    3.11902393815019    1.90289180520458
H         6.78288924457567    1.67066372739269    2.60929082306514
H         4.99309065507192   -3.64524121831919   -1.40614022036086
H         7.11413460910760   -3.17112115546669    1.52020329561441
H         6.99862892943840   -0.95516365146504    4.10906835362649
H         8.23266320695381   -0.37463789515120    3.09101049682924
H         8.12945190464010   -2.12471889380133    3.43436577402033
