30
 energy: -48.312469366722 gnorm: 0.125659711044 xtb: 6.4.1 (79825abcba525fcdf90b791dcacef51065a7a4e7)
C         1.01828305967971    1.54194336417361   -0.70604343582574
C         2.41632348910881    1.97244293838161   -0.40262772384422
N         3.06571337733384    2.85080876727779   -1.08370925273811
O         2.87010515542749    1.31993585531158    0.68438720554020
C         4.25434668835407    1.51257305955083    1.02367311649246
C         4.64752109976471    1.87577534259978    2.45597578136252
C         5.76767338768963    0.90606579416650    2.88586377660412
C         5.46290550490742    0.25970648067274    4.16958317593399
N         5.38115398802786   -0.32840337231594    5.16816394823146
C         5.68667781295721   -0.22617785306749    1.89002148379749
C         5.00031763627992    0.22963890024669    0.83419633477498
S         4.90021256061623   -0.52016421707178   -0.70324523870630
C         5.64925511546687   -2.05485061116551   -0.38123141561646
N         5.64786687507883   -2.96353007019536   -1.29159719576584
C         6.43569659874655   -2.29108513247503    0.84636445881655
C         6.50464762472959   -1.43137914693317    1.87979971160412
C         7.44739009463982   -1.60611597847898    3.04010970662722
H         0.34896157135962    2.38098453659317   -0.91197379900645
H         0.69315573488342    0.87921675239157    0.10063820340471
H         1.06156440756501    0.92448403783731   -1.60771506994307
H         2.60146153957163    3.23602945210545   -1.91347908073945
H         4.65501827432460    2.25612805528484    0.32428293807336
H         3.74460144541584    1.83456550326211    3.07770491579034
H         5.02289382586512    2.90659790677266    2.49388373544660
H         6.70900054852840    1.45979201063747    2.99600617439085
H         5.21426795770661   -2.80133695158508   -2.20928121297904
H         6.88034986171877   -3.28143663270117    0.83554849835212
H         8.05426021060526   -0.69971110592224    3.15505062635808
H         8.05216888680332   -2.50562308002684    2.89177192569193
H         6.90388193279261   -1.87592953142824    3.95096726127749
