30
 energy: -48.310706241558 gnorm: 0.137058862269 xtb: 6.4.1 (79825abcba525fcdf90b791dcacef51065a7a4e7)
C         1.01866693931338    1.40226584054733    0.07560441939165
C         2.42936162897866    1.73155450137887   -0.28965919558439
N         2.82488118870997    2.23550508564899   -1.40621815497303
O         3.26175301507470    1.49858151728127    0.74287794704528
C         4.67877919364184    1.63236097808479    0.53675032911008
C         5.40100417268001    2.33966776670650    1.68396488164876
C         6.03159074426426    1.20721800635733    2.52050518480898
C         5.12008943132044    0.96953794265456    3.64801261080212
N         4.22444465038940    0.72391381269559    4.34601643952074
C         5.96326251532412   -0.03641207084725    1.66671739571815
C         5.27489966891119    0.26030792293141    0.55687952243685
S         4.84209977890308   -0.93326475304996   -0.59378163146018
C         5.45403936470141   -2.44403805325459    0.00880787857195
N         5.24780475546617   -3.62949206702750   -0.44576040811143
C         6.39817830611281   -2.29626597884944    1.13488686765767
C         6.59272714822640   -1.30144199376094    2.02050151780406
C         7.32231502267358   -1.52732810543576    3.31753384066080
H         0.53860655943777    2.14739112739735    0.71491576829512
H         1.02180783881451    0.40907391172097    0.53299870966581
H         0.39049953360240    1.34917018883510   -0.81811119307715
H         2.10014498739391    2.35494097146443   -2.12241311706055
H         4.79232941689860    2.11871307403046   -0.43953160994509
H         4.72266135239691    3.05872463765825    2.15969331907114
H         6.22170377734239    2.92364419224952    1.24766156518370
H         6.98811025868699    1.57897957095121    2.90999812409183
H         4.69299300958184   -3.63276529747696   -1.31099553312516
H         6.92961775395967   -3.21431304628457    1.36595267757803
H         7.60478599914965   -0.62683885651295    3.87646304468973
H         8.22524088448168   -2.01069999296212    2.93288977890728
H         6.72165113948433   -2.09363776779345    4.03611457689619
