30
 energy: -48.310477638855 gnorm: 0.138629777860 xtb: 6.4.1 (79825abcba525fcdf90b791dcacef51065a7a4e7)
C         0.89049498829513    1.55352593922204   -0.08905118953310
C         2.36953744645973    1.54751630729549   -0.29953950440689
N         3.14867180379450    1.42551139952762   -1.31697268571427
O         3.08206550387786    1.85739437169544    0.80026235762737
C         4.51061270455293    1.69506809577886    0.76488135652612
C         5.14701263694211    2.25465945254409    2.03761294021675
C         5.87477709344513    1.08019142009725    2.72380919301664
C         5.04503065796458    0.71631166600894    3.88040412625097
N         4.52737212359978    0.26334803771048    4.81665928911782
C         5.90472031341530   -0.01417861106204    1.68376316642680
C         5.03407913035558    0.29446353757956    0.71404660083691
S         4.70489727400694   -0.76229910568779   -0.59394597886894
C         5.72410675397108   -2.13738343899991   -0.29332123470253
N         5.64897648634848   -3.20690558792032   -1.00391539403318
C         6.52762849544987   -2.25470887797943    0.94032228983543
C         6.69211333575688   -1.23388834514041    1.80212707082992
C         7.36081379475520   -1.52604083632909    3.11860055911950
H         0.63251141562735    1.05243095720484    0.84729113972318
H         0.45924077813881    1.10674563020188   -0.98908272868862
H         0.50780050560935    2.57543394954109   -0.01563466942553
H         2.68624454954681    1.44802045345090   -2.23244911514807
H         4.78558473712146    2.17182952427672   -0.18361606482044
H         4.32825770832805    2.65735518188324    2.64669899630039
H         5.87057217770433    3.03398773778495    1.76549916227990
H         6.84912810322855    1.40779496309266    3.10872089001560
H         5.16710571122244   -3.03097039068542   -1.89459264638069
H         7.12124044451783   -3.15849213979648    1.03743243336304
H         6.57502138475043   -1.58316167237843    3.88171266318171
H         8.10845074575314   -0.78678820695972    3.42095646431661
H         7.89180438259942   -2.48260006603104    3.14869113587462
