30
 energy: -48.308829283938 gnorm: 0.124385095915 xtb: 6.4.1 (79825abcba525fcdf90b791dcacef51065a7a4e7)
C         0.96213855618739    2.32707746186812    0.04314159841746
C         2.43475679854595    2.22705682039966   -0.18772507601632
N         3.06230933265776    2.77065416206396   -1.17148600711639
O         3.06502885139520    1.45393951933612    0.71689172650799
C         4.49510179258315    1.37052136907926    0.58929264027161
C         5.23998102897486    2.01398650779557    1.75937835567823
C         5.76580730864989    0.91963525629847    2.71110501470320
C         5.13196581274004    0.66994287006502    4.01283392735657
N         4.64017045789447    0.42431248643522    5.03631973310730
C         5.77985986334905   -0.22162084403395    1.72238101198760
C         5.00683266364946   -0.03423214853290    0.64491143519481
S         4.80074527765605   -1.01270559275518   -0.74651598803033
C         5.61788711910917   -2.45584814153786   -0.22724832103765
N         5.56652397133634   -3.53365192112443   -0.92736765530752
C         6.44736840200368   -2.40779621618182    0.99379246684795
C         6.50716734140108   -1.46285468381001    1.95053009125619
C         7.37053612179514   -1.81106220728053    3.13330720358487
H         0.50499837006692    2.01057543694307   -0.89772926411865
H         0.79600091075983    3.37993859253830    0.28713203177319
H         0.56143749475313    1.78000933783567    0.90121861196673
H         2.45073130680597    3.27839719236917   -1.82003211119274
H         4.74015047321260    1.88123930938830   -0.34968380469235
H         4.55571662652070    2.72497404329703    2.23874070466489
H         6.06051658616932    2.65441620709056    1.41079824519018
H         6.79627530137733    1.20214004156164    2.96243696298665
H         4.98862908009716   -3.56152401829582   -1.77690826604569
H         7.16881799957121   -3.21754968135767    1.04318383276920
H         7.64918980375459   -0.92058332345577    3.70991111450923
H         8.30978522515256   -2.16074817488916    2.69466681369307
H         6.86210982142021   -2.62392411594069    3.66115208365061
