30
 energy: -48.306524115049 gnorm: 0.147494196511 xtb: 6.4.1 (79825abcba525fcdf90b791dcacef51065a7a4e7)
C         0.97433990503735    1.67112434059915   -0.51568757626647
C         2.45984765711568    1.73049998714697   -0.66282449021735
N         3.30205349565577    1.85501300203492   -1.62837699622843
O         3.08677904199396    1.51530862267193    0.50932501691377
C         4.51737469871313    1.55507893118153    0.65132161889720
C         5.08783594107837    2.26603411864691    1.87896555541638
C         6.01194554232567    1.24186971784286    2.56961030272189
C         5.64323843624126    1.11970719035845    3.98655443816418
N         5.16837033377180    0.84509745275207    5.01066860902668
C         5.91964528768299   -0.00463481701626    1.72229398936181
C         5.03817545462291    0.15458444538428    0.72666046257240
S         4.44201500552201   -1.01770894670860   -0.37164425773216
C         5.35115667828504   -2.43541604271055    0.05682744434933
N         5.24790732450415   -3.64061287697931   -0.38055832478499
C         6.40004795373480   -2.29541485608482    1.08712612359504
C         6.61141203048080   -1.26919617179635    1.93213352778216
C         7.33440570959655   -1.45248560464180    3.23953581928062
H         0.70864228923736    2.73011429551044   -0.56399607735716
H         0.73059242566622    1.19015729771276    0.43557867267821
H         0.52294222665321    1.09578005255764   -1.32892807981402
H         2.88989168925620    1.90269009749343   -2.56661590650516
H         4.98889994920185    2.01010971037148   -0.22797884509306
H         4.20880339121096    2.51838806409746    2.48487688028531
H         5.59485696771883    3.18621749907282    1.56095756762855
H         7.05992890357016    1.56769512589600    2.54937225585767
H         4.54599741487337   -3.78114242238457   -1.11814392245598
H         6.96155047611469   -3.20232507563159    1.28926071003300
H         8.04258002149638   -0.61972053020387    3.32933573335516
H         7.96442973153520   -2.34104661142690    3.13753786452677
H         6.66884854538316   -1.37146147563395    4.10459692582842
