30
 energy: -48.313687609671 gnorm: 0.130309601276 xtb: 6.4.1 (79825abcba525fcdf90b791dcacef51065a7a4e7)
C         1.02791753582084    1.68491744254738    0.18338904749439
C         2.46701644231544    1.50050211391885   -0.17283189553037
N         2.94835924430024    1.26123381291217   -1.34251801052530
O         3.35658406383076    1.87258305856301    0.76712022854906
C         4.74136973123006    1.63463606018755    0.46036526661380
C         5.45924429956485    2.31261147383511    1.62784052501118
C         5.90253682038296    1.15353904699206    2.54431442548990
C         5.02718846140239    1.18545476797111    3.72386777135556
N         4.61237885031023    1.10014494020567    4.80570664735836
C         5.78023956852139   -0.09131547547400    1.69837193263985
C         5.07525502318378    0.18232386438291    0.59304638753263
S         4.85116505681391   -0.87342413588189   -0.73779259932035
C         5.56542511179303   -2.36344075139693   -0.19955177401848
N         5.69650368422717   -3.43811509005782   -0.89407299232909
C         6.10567140940972   -2.39507410603380    1.17464692708239
C         6.35142000331979   -1.38855918996966    2.03393306069019
C         7.03546283029305   -1.57975098017802    3.36101517665449
H         0.45017640238496    0.92533965847959   -0.34919468693427
H         0.73845248652851    2.70015900756365   -0.10146909115264
H         0.85094309509085    1.66806677108991    1.26252626575677
H         2.23157120346420    0.92179338298117   -1.99323900629543
H         4.90898164534986    2.10967302134063   -0.51370073269332
H         4.82497821516081    3.00428203030983    2.19600219356480
H         6.29397241379594    2.89858320760609    1.22188117402118
H         6.87837256796866    1.33188717841304    3.01418411416527
H         5.21107262966517   -3.43423025216090   -1.80005323896120
H         6.49738255340570   -3.37411404578131    1.43285785566573
H         7.99028458478564   -1.05184062799171    3.24832685186868
H         7.11410849376634   -2.62485497350064    3.67477791893797
H         6.58745595895917   -0.95898364687680    4.14319147911614
