30
 energy: -48.311154422983 gnorm: 0.129953800842 xtb: 6.4.1 (79825abcba525fcdf90b791dcacef51065a7a4e7)
C         0.73308557273639    2.05535774761100   -0.10992138880952
C         2.22604254735374    2.09195535276783   -0.06932425575562
N         2.92303296644452    3.05207667490482   -0.56880120773184
O         2.84863985621022    1.11993751136370    0.62410107530275
C         4.27756160576086    1.27650201254638    0.57916851978243
C         4.84767775432720    2.00724605291906    1.79529917744611
C         5.64465467706868    0.97629883666579    2.62104562926591
C         4.95578149144463    0.48460105054945    3.82199796117728
N         4.40026179585954    0.11980792862614    4.77491138478886
C         5.89329610458988   -0.14253425226328    1.63787316886973
C         5.05916602723174    0.00097995544302    0.59996326398121
S         4.93549527026559   -1.10812275518231   -0.70024798932548
C         6.09067825322696   -2.35313287258983   -0.33211455977930
N         6.48110112129756   -3.27221605746680   -1.14286873978172
C         6.71878132259575   -2.37689418101109    1.00437739742294
C         6.65995977317186   -1.35698488235897    1.88082612841630
C         7.40709463530782   -1.51736030738346    3.17762413735135
H         0.29444771906612    2.01153150128984   -1.10995376642037
H         0.26972888647184    2.95669385348596    0.30061900582191
H         0.28764752921229    1.26993577341188    0.50719959312724
H         2.34096973360053    3.80182782836003   -0.95805474528176
H         4.55442403178341    1.87802075801372   -0.29494865610358
H         4.02457669772297    2.48822839661990    2.33813428088197
H         5.49419606685878    2.80943727787946    1.41656416761623
H         6.52362105141349    1.48075383675318    3.04269033649046
H         6.02016907893628   -3.10472934956808   -2.04616739540566
H         7.34571402771499   -3.21308400217465    1.29826799514071
H         7.62013491876481   -0.54531658778494    3.63894554228002
H         8.35930388744510   -2.05441242779707    3.13582556388029
H         6.95752543376585   -2.11903825443977    3.97369775109696
