30
 energy: -48.303551846337 gnorm: 0.135421864154 xtb: 6.4.1 (79825abcba525fcdf90b791dcacef51065a7a4e7)
C         0.84571863786991    1.98461619915593   -0.66283896991666
C         2.26873221379673    2.26589632362103   -0.30531711751536
N         3.07764273861040    3.25274026487233   -0.47534242598351
O         2.85128703869910    1.12241460175163    0.10256053540912
C         4.18062444498995    1.24660070472859    0.63715244451735
C         4.25444974620566    1.56422224273108    2.13102637638479
C         5.58523385904570    0.98428785272950    2.65310989845436
C         5.25575029200242    0.41541425725139    3.96704396215882
N         5.12565560057915    0.05155651963840    5.06267299729530
C         5.89505976111991   -0.04020351720348    1.58790419875195
C         5.08944950344929    0.06367168549118    0.52309059447043
S         4.97033269785627   -1.12625858220053   -0.70403184201304
C         5.77909807380206   -2.50103969530907   -0.01418008485396
N         5.89050379890589   -3.60918641701907   -0.65765949749712
C         6.63127596431624   -2.30721768614377    1.17641408340051
C         6.74675822032250   -1.17935427059645    1.90196561865748
C         7.72260226919635   -0.98951777529128    3.03214530336587
H         0.33216832552987    2.80087205743934   -1.17701900527134
H         0.34036586770352    1.57183777750691    0.21459032001547
H         0.88161759421684    1.11563897481562   -1.32596103957055
H         2.70216154627355    4.07662748460689   -0.95769751931507
H         4.68552992250068    2.03519385668150    0.06640760266130
H         3.39716578661745    1.09957967125295    2.63369999486627
H         4.10118795548477    2.62945912311732    2.34717000273397
H         6.30921682347488    1.79307725570941    2.81604935652410
H         5.33353835238389   -3.71983342404116   -1.51440060078610
H         7.28100200413352   -3.15830777264081    1.35566628497385
H         8.40723730456470   -0.15898836467947    2.82103321837538
H         8.52596129576641   -1.72830689166922    2.95678331752232
H         7.26982294960911   -0.93022761070009    4.02679977871713
