30
 energy: -48.313243653487 gnorm: 0.122741813252 xtb: 6.4.1 (79825abcba525fcdf90b791dcacef51065a7a4e7)
C         1.09799741096433    2.06319785505373   -0.72190235229830
C         2.57357647660101    1.83320328520720   -0.68095187204871
N         3.33986579108610    1.88754014613196   -1.71388652651319
O         2.95437908035575    1.48063110322549    0.56161281010113
C         4.38764171438548    1.40970977650281    0.65688627513152
C         4.63201848148247    1.99239966655373    2.04927466657336
C         5.83129581631796    1.18883277868795    2.59323750500655
C         5.88077298723903    1.06112407364117    4.05605730900582
N         5.70743773121379    1.09108060299808    5.20443771046973
C         5.74309246776338   -0.09401724139166    1.80155966172916
C         4.93747459088572    0.02067384376206    0.73786246285959
S         4.49041101828329   -1.15858170920429   -0.42206978603059
C         5.46018718934108   -2.51529341363234    0.06669141739284
N         5.31733819096300   -3.67096652316232   -0.47964178411076
C         6.46190867579307   -2.30875127556591    1.13214108679608
C         6.59196642358373   -1.26529744627327    1.97245420908247
C         7.46666563312662   -1.33749729242355    3.19528047844064
H         0.75531827247338    2.67966901907444   -1.55672147689242
H         0.70539776931407    2.53905891179973    0.18091068635456
H         0.58700986007419    1.09753122579984   -0.77210907401982
H         2.84765198818245    2.11321164393940   -2.58523069529065
H         4.71207369754966    2.01349971322628   -0.19911604231982
H         3.76863558357965    1.81632970854477    2.70278718567900
H         4.83660017042473    3.07016401004115    2.08809743356434
H         6.70341732707371    1.77738096364049    2.28041807155607
H         4.51821459282080   -3.77171884436822   -1.11816275540013
H         7.07929204436820   -3.18556911976555    1.30142740552389
H         8.44012889596847   -0.85799257191088    3.03553993329966
H         7.72737592062564   -2.39676771445682    3.27805023389406
H         6.94055279917943   -0.90930982913254    4.05418835857319
