30
 energy: -48.304347701444 gnorm: 0.143967538662 xtb: 6.4.1 (79825abcba525fcdf90b791dcacef51065a7a4e7)
C         1.02256928145979    1.46637235427685   -0.59501829572835
C         2.42470080069401    1.92357693158680   -0.35648277089987
N         3.10426685391557    2.81956632993773   -0.98298000445267
O         3.00177728970115    1.39930284354039    0.74142622238326
C         4.41562134330890    1.54985294271798    0.95759352756099
C         4.63330124953351    1.81103839745897    2.44836197354454
C         5.79994277364105    0.92101619142977    2.92448115178781
C         5.39028078339888    0.30304613739801    4.19290117534540
N         5.03425417169307   -0.09751024076770    5.22368713420272
C         5.81891399873369   -0.06752886394757    1.78314133992638
C         5.21766789312027    0.32434276967024    0.65240455422186
S         4.76699522063525   -0.63575563621041   -0.69335081469954
C         5.67719636803047   -2.09345988846649   -0.43518002591672
N         5.71685753113193   -3.00335976435631   -1.34346155626549
C         6.37977361558112   -2.25957250337482    0.85326104207427
C         6.58226493811996   -1.30808695814522    1.78358870474802
C         7.39535945437122   -1.63985807994887    3.00605376856873
H         0.43095793292429    2.38503628115641   -0.57401209512734
H         0.71966879093848    0.74838476343838    0.17205061796062
H         0.95695306457316    0.96952891589298   -1.56712021426060
H         2.69077556801524    3.19783917730295   -1.84226885111296
H         4.71466246138805    2.39248486074791    0.32268862916421
H         3.66753546795705    1.51099906208588    2.87354678667763
H         4.81718718732983    2.88295973862214    2.59704773308341
H         6.70279145121000    1.51416207668087    3.11911698562265
H         5.37295910149621   -2.79863799347380   -2.29018297762877
H         6.79832566587525   -3.25987242565018    0.90658879176005
H         8.16892258191628   -0.92843559184414    3.31998157596270
H         8.03793026606809   -2.44040905551175    2.62777423737554
H         6.84137475315557   -2.13802964383456    3.80779437447274
