30
 energy: -48.313393536014 gnorm: 0.129272074353 xtb: 6.4.1 (79825abcba525fcdf90b791dcacef51065a7a4e7)
C         0.87507731749477    1.74765654638918    0.21202753211287
C         2.31108155153752    1.78554197101128   -0.19829496838653
N         2.80909510663609    2.07014497654596   -1.35072259520007
O         3.17817001478242    1.58887252430242    0.81302272520136
C         4.58787495055288    1.55064240216602    0.53085416448691
C         5.21200833289287    2.27235392046934    1.72566919231303
C         5.84443677976970    1.12482618018827    2.53997613425476
C         5.06217456190508    0.78631855306349    3.73667063464854
N         4.47358531674291    0.53290482999022    4.70572391123543
C         5.84446566933410   -0.09477921166652    1.64958266390502
C         5.14901771279508    0.16377588683346    0.53462645134821
S         4.93762874125707   -0.95276157442369   -0.74779747690971
C         5.72441538250729   -2.37063249259148   -0.12279441081715
N         5.96728239105494   -3.36064685750082   -0.90723900739868
C         6.37400216766889   -2.42320207296754    1.20255914844502
C         6.48286412237785   -1.35297492877167    2.01163269692819
C         7.23884506062243   -1.51288034781802    3.30335197672810
H         0.48200542140231    0.74381463748855    0.03262696088829
H         0.31973952028394    2.45327565402454   -0.41195260570647
H         0.69749080802086    1.97853228639592    1.26620989506088
H         2.01787825590134    2.15258801988471   -1.99850477539654
H         4.77092049239620    2.05764022475492   -0.42413584000539
H         4.55403736282708    2.89204690343635    2.34741196849319
H         6.01195665251670    2.89767477971831    1.30854406800541
H         6.89208116790262    1.35407634968175    2.77391309164873
H         5.40790304825659   -3.41714936150310   -1.76768122326428
H         6.93769350657298   -3.34870558730288    1.26832339406103
H         6.46218539955945   -1.21899558127925    4.01994395990443
H         8.03300417604133   -0.77435952702551    3.44747971230161
H         7.53386602419155   -2.52339508307028    3.60282578144110
