30
 energy: -48.310296715866 gnorm: 0.134771955404 xtb: 6.4.1 (79825abcba525fcdf90b791dcacef51065a7a4e7)
C         0.86853274619410    1.72340968246381   -0.00554930643145
C         2.33311643611936    1.80032200387944   -0.29013169070432
N         2.85940804218551    2.31436685944150   -1.34648430283145
O         3.09495323287456    1.34934176568577    0.72451419671854
C         4.50954235152406    1.51847225750410    0.52783893133539
C         5.04010192710014    2.15961999607769    1.81058172029029
C         5.89992528175269    1.11816171150473    2.55620218823930
C         5.37491550850996    1.02727436507913    3.92540031885834
N         4.85745995462354    0.88712839141739    4.95608888043045
C         5.84005054923406   -0.11385207536277    1.68511386625562
C         5.06398430126181    0.13208136738815    0.62169302942962
S         4.95817933755898   -0.94543185528915   -0.70635926624901
C         5.70424802691333   -2.44099921536835   -0.23025028354893
N         5.94245698336737   -3.48685314515391   -0.94011801119090
C         6.41267603082012   -2.39547019870953    1.06487344308193
C         6.41788531779128   -1.41611496905365    1.98827652648499
C         7.11662190063716   -1.59420204183295    3.30951374882599
H         0.43537789394969    0.72181660858879   -0.06535605531121
H         0.27316442331766    2.38822173764573   -0.63738084898019
H         0.75179359530481    2.04522508014555    1.03317483968649
H         2.15812489607723    2.58366113474763   -2.04514391636963
H         4.55224710770862    2.13969857518594   -0.37483073863118
H         4.15799073506092    2.40559550760069    2.41463897422865
H         5.67074789334088    3.02638059642259    1.57404719206961
H         6.96255023272896    1.35532791712310    2.69556252579972
H         5.33529554102994   -3.53355153188675   -1.76814749860691
H         6.97921580945690   -3.28782064576753    1.31260913534253
H         6.48769328504778   -2.19398469576021    3.97867898175652
H         7.34364972106603   -0.66129648340896    3.83393733333742
H         8.12189852142051   -2.02227310064147    3.24598386475862
