30
 energy: -48.316096754322 gnorm: 0.125874231869 xtb: 6.4.1 (79825abcba525fcdf90b791dcacef51065a7a4e7)
C         1.10369813977250    1.89834889799331    0.37225587792465
C         2.42278098385810    1.45917914417671   -0.17460645903950
N         2.75455920107070    0.80875030754392   -1.23478161644788
O         3.46333150644732    1.81495792511073    0.60254272151042
C         4.81584942478330    1.53124894785757    0.20435530137249
C         5.61911084929977    2.34827429326214    1.21689355206410
C         5.94217619384832    1.34999768704942    2.34780211278473
C         5.03070880705310    1.60150547359561    3.47233335595352
N         4.25421562988809    1.78150871826006    4.31754180594601
C         5.70220078442847   -0.00857473820517    1.73385513062332
C         5.12855343818938    0.10466868637758    0.52897715917768
S         4.74645061034762   -1.18268842548951   -0.53528863231596
C         5.65857057378707   -2.54704624703380    0.03618756894612
N         5.90085658734657   -3.61535232232587   -0.63796811290819
C         6.18918901042726   -2.37224216245354    1.40336584398370
C         6.21800886121429   -1.28824645993781    2.20083689111984
C         6.95979365940287   -1.46140245025378    3.49906189911932
H         0.37350776916463    1.92572155104211   -0.44043189869795
H         1.25815639062104    2.84091111230415    0.90457977400462
H         0.68912606508589    1.22087516808882    1.12412047632928
H         2.02855225138509    0.58745051630563   -1.92498667807836
H         4.90912644991331    1.76545966392695   -0.86288561779905
H         5.04327814802877    3.20604837903294    1.58587814293047
H         6.57230209143693    2.58454574634303    0.72644564651518
H         6.99342491538037    1.43899812831572    2.65078072595405
H         5.57597571889673   -3.55868128137262   -1.61146666181980
H         6.58603509671120   -3.32557659980148    1.73847232592297
H         6.97234222282126   -2.48411742130977    3.89525530663836
H         6.51120291907303   -0.90635713196178    4.32825765574236
H         7.93802218419928   -0.99243247852549    3.35415460202938
