30
 energy: -48.310744255112 gnorm: 0.128558391753 xtb: 6.4.1 (79825abcba525fcdf90b791dcacef51065a7a4e7)
C         0.96574759317651    1.54362160240485    0.31806786030026
C         2.36221085792513    2.02765482789502    0.10009948956729
N         2.82308644633690    3.17100456006176   -0.27064421026531
O         3.16191920504902    0.98495442110597    0.39425451362265
C         4.54455356262192    1.21125603638434    0.06951081877153
C         5.17306434751031    2.17671901033542    1.07492037808089
C         5.65801569993136    1.27578389920482    2.22948503419684
C         4.72817467135763    1.16411923977198    3.36153006529355
N         3.89184646482476    0.97794303337008    4.14614054429518
C         5.89363449989244   -0.02062258252791    1.49188634794410
C         5.18384418848274   -0.10987785962377    0.35969504759638
S         5.16790478977913   -1.39117566236519   -0.77783481685093
C         5.90849076708613   -2.64728269367262    0.16754738941818
N         5.90326367386936   -3.84329179049519   -0.30574010857018
C         6.63110547018925   -2.30670213808322    1.40977178863680
C         6.56352567700390   -1.15788563079326    2.10797709553149
C         7.22020541179209   -1.11760004797514    3.46177338423810
H         0.80330546568526    0.75876887451533    1.06103987169302
H         0.52455879859694    1.06059140914646   -0.55810785656719
H         0.30756082993370    2.35919430171228    0.63075362556189
H         2.10050126059298    3.87643475262419   -0.45142475650175
H         4.62589158184069    1.42295797231150   -1.00339401811904
H         4.42413230482748    2.93555376882619    1.33333839616706
H         5.93849307242487    2.74145765429923    0.52708282530855
H         6.55942730117324    1.61694445501548    2.75475400789781
H         5.48988514111007   -3.92716023343274   -1.24304628055509
H         7.09698850310522   -3.18127290339410    1.85329020325494
H         6.57953926845963   -1.25224333806601    4.34182486653979
H         7.72637980594677   -0.15877293109505    3.60776156709662
H         7.99613528334578   -1.88716546994512    3.52147142051052
