30
 energy: -48.307338795155 gnorm: 0.133366785848 xtb: 6.4.1 (79825abcba525fcdf90b791dcacef51065a7a4e7)
C         1.06648495201330    1.97599316300420    0.96849739870152
C         2.37236557273557    2.07070505114508    0.24904379579110
N         2.67782786698701    2.92672034359854   -0.66256819162497
O         3.17179441697534    1.01568026629092    0.49627038069555
C         4.51813768684908    1.22820440890579    0.03742188051284
C         5.26359609390272    2.16956333997573    0.98406229831102
C         5.62906584387783    1.22182636386712    2.14514280279350
C         4.56555109379238    1.22333568829466    3.15881603432116
N         3.89804576634893    1.19025200351263    4.10911187091358
C         5.69745858618209   -0.15182815120438    1.52173800044464
C         5.17291229332450   -0.09290195099989    0.29088266735344
S         5.25686259764753   -1.41879738368357   -0.79120142425802
C         6.05270173217747   -2.74364615552057    0.00342790976831
N         6.36423063872660   -3.88474081983600   -0.50186293779481
C         6.43388439116400   -2.45023647839530    1.39981579519071
C         6.39589236757286   -1.29608705482708    2.09143184724005
C         6.98739727964550   -1.17868582698121    3.47054551174799
H         0.58789474893538    2.94698839105634    1.11852520838888
H         1.16912574726322    1.33839001011966    1.85086732885503
H         0.49596374309005    1.40334243843233    0.23180361607535
H         1.99537687788999    3.64689471493944   -0.92343642553654
H         4.51171476655474    1.53695396403800   -1.01480947748789
H         4.57341428882174    2.92853922502641    1.37279608417794
H         6.17225655044082    2.45636293290731    0.43906777702879
H         6.57519688397450    1.38850370963442    2.67608123859768
H         6.11995099197714   -3.93330290625118   -1.49907292804680
H         7.03216509019056   -3.25840555203723    1.80914764560665
H         6.11037631274922   -1.40111798796476    4.09057027678611
H         7.29300286912908   -0.18733776328664    3.81797714923539
H         7.68973265707360   -1.95589977790520    3.78760299841712
