30
 energy: -48.307413329480 gnorm: 0.134414775157 xtb: 6.4.1 (79825abcba525fcdf90b791dcacef51065a7a4e7)
C         0.83751711955197    1.51614324747124    0.19756551272474
C         2.23398874611435    2.01834094408412    0.02559897191380
N         2.75079008209928    2.98978559723998   -0.64247098933549
O         3.15312339645203    1.20837293568410    0.58455163021858
C         4.54556403461488    1.50966342019282    0.38787482849228
C         5.03625311755808    2.13852789114925    1.69238494829198
C         5.66844063073215    1.03895459325343    2.57054151969980
C         4.77596611771502    0.53771512141128    3.62450905092153
N         4.19303037219414    0.01134468534481    4.48056988361640
C         5.87451362954718   -0.08168163849367    1.57960952908386
C         5.33899191036703    0.24131378957852    0.39533067499189
S         5.19309704227385   -0.89849242824231   -0.87569600301388
C         5.80150565624466   -2.35397462962967   -0.14670319751154
N         5.82354792705920   -3.53448307031699   -0.65697774125252
C         6.59471455161785   -2.31011294328364    1.09836082228431
C         6.56298086456081   -1.29912512512487    1.98646761853867
C         7.33257175555730   -1.34918136820749    3.27907732530615
H         0.11549763732967    2.33455879556200    0.14035959942713
H         0.64140185515875    0.78202485170677    0.98385972623710
H         0.72664019559192    0.86737870930103   -0.67590567328774
H         2.09813295083979    3.66362863452296   -1.05770218155831
H         4.65674681118782    2.19829701859635   -0.45828149624355
H         4.19537694033998    2.68033255144579    2.14281167637240
H         5.80013974907628    2.92207018922721    1.60592373925118
H         6.58465168441141    1.42271357140331    3.03758247628362
H         5.47728962376149   -3.71310598157960   -1.60811265793504
H         7.14988509926799   -3.22257341030941    1.29286320695151
H         7.85409306117897   -0.41581181114948    3.52384117730824
H         8.17612142550311   -2.02997581402940    3.13137021713022
H         6.69701616852727   -1.73043735182984    4.08441882688109
