30
 energy: -48.310625415870 gnorm: 0.124905091680 xtb: 6.4.1 (79825abcba525fcdf90b791dcacef51065a7a4e7)
C         0.90885348050227    1.56124566007445    0.37991631129332
C         2.30077508589434    2.04584562545828    0.13573367469755
N         2.57682176994518    3.26649444861017   -0.16579659862907
O         3.21142849040523    1.05468544282984    0.17569187073606
C         4.62822703266648    1.26163265731769    0.04077160098064
C         5.38772100782843    2.14352829045991    1.03244797945453
C         5.73720979012567    1.19963802496399    2.20155461184932
C         4.51947281688456    1.18606907229850    3.02346215421560
N         3.56720355602703    1.25776428983262    3.68509890299646
C         5.90942727335545   -0.13606638600538    1.51856634576686
C         5.24953790017692   -0.06246011220877    0.35548663529353
S         5.09099541787151   -1.46310265578469   -0.61868856663308
C         5.86996561969232   -2.71861937325144    0.29613564346427
N         5.85514716857092   -3.96556912284209   -0.01908331454681
C         6.74223644782481   -2.39034459584785    1.44185292286257
C         6.72436757501563   -1.20509465055101    2.07958374444227
C         7.33556668997331   -0.99643143396353    3.43918337456235
H         0.16519168236475    2.34619728825051    0.53868260009670
H         0.98184183562330    0.78869253359645    1.15029542378993
H         0.56321602880109    0.95735316395184   -0.46387847413063
H         1.75276283093258    3.87171522225995   -0.08166933501802
H         4.78389619423360    1.64544487073167   -0.97461686853274
H         4.93089762184809    3.08875561425422    1.35082984574063
H         6.32832048566256    2.37122563295014    0.51440991936849
H         6.60173611974903    1.59013465650007    2.75377521773630
H         5.45134491732797   -4.29012892831757   -0.90681260151453
H         7.25856061603371   -3.31103220546789    1.69557206142597
H         6.52104638647225   -0.80747824144386    4.14906079726426
H         8.03319177851270   -0.15402351100035    3.41588783599259
H         7.94325034557938   -1.86881704101451    3.69904090534214
