30
 energy: -48.313496259951 gnorm: 0.127281261360 xtb: 6.4.1 (79825abcba525fcdf90b791dcacef51065a7a4e7)
C         0.88259187932516    2.06112656535217   -0.46056551430708
C         2.36101004974556    2.18929400822758   -0.28805215737328
N         3.02451798424130    3.27958638773222   -0.45575895502578
O         3.02229982508974    1.09149164712050    0.12524022089592
C         4.44876751276375    1.21455472788401    0.26086523851504
C         4.81422104684119    2.05263826785805    1.48644784952249
C         5.81331909435229    1.18908560822745    2.28391977312454
C         5.48442628329839    1.09169326666163    3.71253578925029
N         5.25721155158705    1.07268849448910    4.85171638317516
C         5.82923498368152   -0.19053295599882    1.67021184778801
C         5.15873030491288   -0.07731920874328    0.51642140513948
S         4.84935315208103   -1.38396238257728   -0.54796666167290
C         5.60277859167636   -2.79205759939476    0.13733480617821
N         5.57877060968548   -3.95164904074187   -0.41875652208835
C         6.40566909471082   -2.51193734704742    1.34488948553426
C         6.49939700190514   -1.40732977996359    2.10836478254400
C         7.32111278997650   -1.33989232568877    3.36767062194881
H         0.48317339962592    3.05519850173576   -0.67660839249390
H         0.47909172971930    1.71822245340903    0.49612357254931
H         0.59985199315532    1.32823031347889   -1.22152692906354
H         2.48446957180195    4.10131908723011   -0.74824108863394
H         4.85913482650663    1.74297293324832   -0.60800259232143
H         3.88396010141395    2.09083297006370    2.06667629196509
H         5.29423716891157    3.03194519005494    1.36203173496576
H         6.78449445437308    1.69549446641946    2.21174308556363
H         4.93381253280286   -4.00921170226504   -1.21698846065004
H         7.08589196095851   -3.32723452412560    1.57120139245896
H         7.58753270400416   -0.33093600375812    3.70545777824646
H         8.22892077911800   -1.90386929540377    3.13381344076957
H         6.86462196482313   -1.96310252949193    4.14296874301284
