30
 energy: -48.306989499740 gnorm: 0.132615904961 xtb: 6.4.1 (79825abcba525fcdf90b791dcacef51065a7a4e7)
C         0.78554288124751    1.85139510094977   -0.15221863753868
C         2.23984400154223    2.10805534413939    0.07370566696162
N         2.76190153068372    3.26491574719109   -0.14131933344824
O         3.02315037791239    1.06708834701285    0.41444542639199
C         4.44126419186512    1.29567475403372    0.34338129311858
C         4.88191565489660    1.98894018975608    1.63303328689381
C         5.50661735710233    0.91872628837836    2.55187572326026
C         4.74192683359674    0.67850216137643    3.78319211694680
N         4.35883870866854    0.58249675298956    4.87577918624295
C         5.65907550692057   -0.27885837640063    1.64480058673679
C         5.15883259300234   -0.01417783887211    0.43099368699628
S         5.01743839472510   -1.21639122054240   -0.78170701684384
C         6.08440687804377   -2.46691595075462   -0.21798178816365
N         6.21984273994341   -3.55386457539695   -0.89227101061176
C         6.87323853197967   -2.34000315940416    1.02416407896610
C         6.61167885677774   -1.35105265911511    1.89903578166470
C         7.42044361470604   -1.25449820543970    3.16481317662161
H         0.74397773153481    0.88928748618987   -0.66894867798935
H         0.27236448775232    2.74640357262650   -0.51451323898976
H         0.36979044897609    1.56316010863100    0.81742641862058
H         2.11301360360225    4.00642251331432   -0.42689749514097
H         4.58930527603793    1.90071105918911   -0.55915583751736
H         4.06039685168201    2.45025342129071    2.19499968032243
H         5.65247715559638    2.76141972099832    1.51283677448898
H         6.47122321960330    1.34517584589723    2.85604212831064
H         5.74567844121414   -3.64885152787444   -1.79924635877395
H         7.65191290594460   -3.07184191822184    1.21575702048412
H         7.83792168793132   -0.25519283404050    3.33851802680446
H         8.28722927451157   -1.92055539971359    3.20868730461738
H         6.89367318453334   -1.37572311245316    4.11648507012325
