30
 energy: -48.313731629538 gnorm: 0.130315796306 xtb: 6.4.1 (79825abcba525fcdf90b791dcacef51065a7a4e7)
C         0.98326939235473    1.37971972732146   -0.08298403286625
C         2.42630785577508    1.69963898713359   -0.30023891236210
N         2.83552053041489    2.34872211386134   -1.33384516696225
O         3.22840960304516    1.34711792257369    0.72232963856286
C         4.63418341090918    1.60240723729914    0.55808584687749
C         5.21820126168230    2.32638898052176    1.77166177326929
C         5.93186136838404    1.20351096651597    2.55250468957488
C         5.18785775573449    0.84358393490378    3.76721061177854
N         4.51979030012857    0.47004563936903    4.64121008841215
C         5.93976034880636   -0.01499305225581    1.66063956712617
C         5.18757266233242    0.21254128750048    0.57617298980541
S         4.83405013925525   -0.87239667349788   -0.70206164354522
C         5.52433866465515   -2.31773531871156   -0.02788219247231
N         5.35166960214324   -3.45572549628891   -0.60201623063911
C         6.38365028141425   -2.32718436849369    1.17327676855387
C         6.60082503227966   -1.27272952871089    1.98123541350502
C         7.33471621308042   -1.41514546562575    3.28765687615882
H         0.46266726395379    0.96216667102841   -0.94843855371668
H         0.46500665188396    2.23579083722356    0.35769225799168
H         1.02146849696977    0.62406899646733    0.70674619483167
H         2.18669499152341    2.57315923346705   -2.09614177073281
H         4.85227190845401    2.07124380759703   -0.40896536774595
H         4.38644977882984    2.73941622646314    2.35570563807032
H         5.92133078664185    3.14143560528589    1.55661591084299
H         6.93813010587898    1.36760732522600    2.95912062209563
H         4.87980384498836   -3.43363638662397   -1.51487622304830
H         6.83541141040898   -3.30066875846661    1.33719636048406
H         7.38413969428728   -2.48678393811734    3.51617569625203
H         6.98299930512716   -0.90983488501509    4.19199692973761
H         8.39451493379487   -1.16732329675807    3.17244921993620
