30
 energy: -48.313517559868 gnorm: 0.129615974654 xtb: 6.4.1 (79825abcba525fcdf90b791dcacef51065a7a4e7)
C         1.01209480394912    2.00062691835883    0.72763607172812
C         2.39914873415331    2.21076600969435    0.21399127311923
N         2.86817721408097    3.12505322791457   -0.56137765567995
O         3.20362554220809    1.17671451526532    0.52518145080491
C         4.59836740384057    1.24585156044699    0.18128632015162
C         5.33676834870284    2.06314225783750    1.24184886592492
C         5.62878489438169    1.05763174864686    2.37479035131846
C         4.48318940080891    1.07138551895910    3.29458440110572
N         3.52528951211236    1.09065916408941    3.95168133920824
C         5.82639098269183   -0.18620246399136    1.54168405032139
C         5.15396307800348   -0.12824513866605    0.38491803694169
S         5.13602225035673   -1.34228706933092   -0.82410332058697
C         5.91514630819270   -2.68645711952117   -0.04551963095573
N         5.95948958525884   -3.85787497173614   -0.57493442754501
C         6.60925663114861   -2.38684261307332    1.22323195890034
C         6.64762883990925   -1.29470365465897    2.00910544200660
C         7.22577630274851   -1.38206270562859    3.39609120861583
H         0.63581395969141    1.10620265589461    0.22483728080591
H         0.42610012684465    2.88427826078481    0.46039058496831
H         0.98378358038901    1.85569767527423    1.81130346521208
H         2.16801250732277    3.87120448238498   -0.63533982262951
H         4.76649588916515    1.70402207805506   -0.80073759038094
H         4.73855890724814    2.92350876691892    1.56653980719864
H         6.31239657177242    2.32403990745123    0.81171069235398
H         6.49124522179102    1.40350045000905    2.95906590370291
H         5.51403420461548   -4.02167054582193   -1.48663563898680
H         7.07021318515773   -3.28699878021408    1.61803260277384
H         7.30697843723015   -0.45150758066006    3.97102243169558
H         8.19008011490796   -1.86982455750135    3.22555954295202
H         6.57478939938001   -2.05470069416466    3.96322095990965
