30
 energy: -48.312153122930 gnorm: 0.123772291104 xtb: 6.4.1 (79825abcba525fcdf90b791dcacef51065a7a4e7)
C         0.86895969019741    1.55233582361535    0.25110063678116
C         2.26498159549281    1.96758507671104   -0.08146351969202
N         2.56063597632989    2.91614060997767   -0.89996012515336
O         3.17606574851381    1.18754766258889    0.53070643220596
C         4.57944609730393    1.48287966428287    0.42276546032366
C         5.11925898670008    2.15264799471109    1.68688783268852
C         5.83111124020708    1.07712592430382    2.53329204520251
C         4.98002152712352    0.87130580179272    3.71307324715624
N         4.19781630417226    0.70903487233247    4.55660344605075
C         5.81674574240967   -0.15416996151593    1.65925435101776
C         5.24651909139828    0.14518250149623    0.48500752743812
S         5.04632864501525   -1.00491775983914   -0.76924344180598
C         5.96728079368574   -2.38970287650291   -0.26502395517941
N         6.09107131681783   -3.49225486093376   -0.91580898851839
C         6.66316048737813   -2.33272220002016    1.03643416317624
C         6.49814707402521   -1.39810048545179    1.99094444017085
C         7.14139716398714   -1.61168006391785    3.33490451455197
H         0.47048343893867    2.00671399981177    1.16167507550878
H         0.80758360189100    0.47986011266610    0.45525359769537
H         0.15966312644157    1.85962019233339   -0.52260197515537
H         1.70852698444559    3.44579190018704   -1.11402200776028
H         4.97343164932265    2.09326224643559   -0.39867647706440
H         4.34669611849069    2.55372874614932    2.35456299173906
H         5.75721758729270    3.01080224993606    1.43886171782194
H         6.84106129532714    1.38277341406402    2.83565174799068
H         5.51191883800223   -3.54233389593466   -1.76347229559347
H         7.17194522460750   -3.24163322853466    1.34245449217316
H         6.44952486954192   -1.77411038878334    4.17036944666414
H         7.78728453644448   -0.74423470631853    3.49995773673426
H         7.86166543751279   -2.43544684155769    3.35690148798701
