30
 energy: -48.312078137659 gnorm: 0.127773609301 xtb: 6.4.1 (79825abcba525fcdf90b791dcacef51065a7a4e7)
C         0.91509080731915    1.73204430085050   -0.03550611120177
C         2.35490621299184    2.07223061077575   -0.24314255711989
N         2.93764807070057    2.79259034446864   -1.13678655117698
O         3.03411833573260    1.49642035936336    0.76700505554238
C         4.47111729139378    1.55455191502744    0.76516923935325
C         5.03675113596404    1.99357233093211    2.11621045782445
C         5.87230120044587    0.89340571174501    2.80277505521719
C         5.26968390027652    0.49810696870405    4.08308384177596
N         4.72058235266489    0.28771751790262    5.08505381435280
C         5.77050033681676   -0.19245945074677    1.75837510470619
C         5.05792408203857    0.18053511916238    0.68751746440563
S         4.98713273411250   -0.68717105818598   -0.78829651821514
C         5.86849200820649   -2.15963561202614   -0.51430025016675
N         5.82133623483742   -3.24849262448880   -1.19740557612584
C         6.57980426535538   -2.29735115675447    0.77269544119143
C         6.40038396010315   -1.50300398898145    1.84445007795910
C         7.07173061197178   -1.95704441179213    3.11281776607288
H         0.68542975116368    1.67942791724840    1.03167521088936
H         0.82813333100664    0.71896941655043   -0.43770914813147
H         0.23887097961465    2.42356857232126   -0.54605675229926
H         2.24191468898705    3.13006600753436   -1.81095860003940
H         4.67969529486713    2.29334558181430   -0.01792558284482
H         4.19756543408445    2.36749092166569    2.71576155474156
H         5.69099617999868    2.86346953042302    1.97415714912848
H         6.87479709900271    1.30130143790730    2.98570658528048
H         5.23332886687174   -3.26039194978558   -2.04035535440837
H         7.08826979402972   -3.25220836287358    0.86401980090868
H         6.88810725157648   -1.38987173238880    4.03350780923168
H         8.13264015337156   -1.84469729549812    2.87048826289282
H         6.82920056892628   -3.01919306036867    3.21713169232352
