30
 energy: -48.307550993412 gnorm: 0.128827009468 xtb: 6.4.1 (79825abcba525fcdf90b791dcacef51065a7a4e7)
C         0.81987198141514    1.89459031071465    0.02874865116398
C         2.30149511184177    2.00234633329847   -0.12964819787844
N         2.89383207022787    2.82547380166220   -0.92255670961572
O         3.04342638725110    0.98671891696190    0.35131301714594
C         4.44893922214944    1.29138418424138    0.35914874876714
C         4.97360727447641    2.11512175352953    1.53565748086040
C         5.67381248507461    1.14826633541403    2.51278833609132
C         4.85217951814834    0.97807088148550    3.71883645716918
N         4.19523057462769    0.74796581002941    4.64899224927409
C         5.79604052243149   -0.12463789982704    1.70966135801478
C         5.16293271334592   -0.01153973379157    0.53492340074172
S         5.02428329196514   -1.26381947540172   -0.62633631370633
C         5.79391403077635   -2.63905862038454    0.10606098637887
N         5.75181268241749   -3.82061541019698   -0.40051296499808
C         6.69407604523989   -2.34877537568401    1.24040334278174
C         6.74846089372698   -1.20178773827017    1.94275561367184
C         7.62847412648569   -1.12726823269472    3.16162360224773
H         0.29318908580127    2.57123615758596   -0.64885313770115
H         0.43598352884682    2.14793903206076    1.02076361474651
H         0.53903015695803    0.90001635477943   -0.32915014290509
H         2.33124174613504    3.47966218901770   -1.47750931493847
H         4.71644355769395    1.70485509051350   -0.62066838454782
H         4.12374466650476    2.66422234679114    1.95960483232926
H         5.62969747317144    2.85274070752633    1.05565666140094
H         6.67292143163737    1.57720726896808    2.66322731147233
H         5.16731692252212   -3.98055057512166   -1.23072018923607
H         7.41321366117874   -3.09633692250162    1.56075071312066
H         7.03548526079955   -1.30654722325991    4.06677320049631
H         8.07322402714933   -0.16477188508573    3.43120255802248
H         8.40295229956819   -1.88893510541407    3.02779871361774
