30
 energy: -48.311860550225 gnorm: 0.128849099785 xtb: 6.4.1 (79825abcba525fcdf90b791dcacef51065a7a4e7)
C         0.91382231112861    1.44032700153593    0.85432859214798
C         2.27177428873488    1.98828806669920    0.55833345672030
N         2.62215866127965    3.13226443904409    0.08330223741273
O         3.19991596506088    1.01615284729581    0.64074036898348
C         4.54598762457873    1.31910082847152    0.23495438815123
C         5.33152257476399    2.19591772112778    1.21072071630131
C         5.64617817419265    1.14233198726586    2.29276988527151
C         4.47268179212265    0.99443974105039    3.16433941106359
N         3.57903960844498    0.94142279510538    3.90482095422646
C         5.78843101030418   -0.15950416464375    1.54095569005399
C         5.20825744242485   -0.01813263240203    0.34219021694331
S         5.26940584516426   -1.10037574269497   -0.98482261036519
C         6.23715331734301   -2.37856251921710   -0.31420843832437
N         6.64059267240487   -3.43137840087570   -0.93330579868005
C         6.59969496517611   -2.33370981048331    1.11681929411799
C         6.41353226105504   -1.37538206418876    2.04352767595895
C         6.89103081420799   -1.57091833289703    3.45752070880297
H         0.76783312453968    0.79640220550353   -0.01655410599343
H         0.15297556111325    2.22497426636500    0.82130588062277
H         0.75770838867148    0.92705427886882    1.80738713485526
H         1.82928125553347    3.77871120587002    0.00652522125248
H         4.51444801346782    1.76505669765208   -0.76638820272860
H         4.89779566288296    3.09387507420546    1.66795460323073
H         6.26724746658253    2.44645066539201    0.69439811288123
H         6.48699660562056    1.51660026269435    2.89092414117323
H         6.43243516297393   -3.46062188438416   -1.93942401030006
H         7.10523872453926   -3.26262635719670    1.36211333293400
H         7.97334926810039   -1.42329878914299    3.55685737762057
H         6.43228906684066   -2.51845656444451    3.75518128930069
H         6.34550560493747   -0.76648373267682    3.96066004512197
