30
 energy: -48.307611766477 gnorm: 0.130677614720 xtb: 6.4.1 (79825abcba525fcdf90b791dcacef51065a7a4e7)
C         0.90518537734469    1.75142420777963    0.72307148683206
C         2.30274820398904    2.09829527490497    0.32506818089885
N         2.65514646027773    3.22831475289197   -0.18087376909134
O         3.11783797546162    1.03422681525950    0.45418724712331
C         4.51185020614293    1.30355199067536    0.22496572999181
C         5.07776717049640    2.14942356116547    1.36611962949068
C         5.46737005622450    1.07321712848712    2.40046519448075
C         4.46413965217517    0.66821027524489    3.39449613282578
N         3.63343993618411    0.36842287105790    4.14933754184148
C         5.83970095112651   -0.09493710853271    1.51897599258727
C         5.20798639977409   -0.01564792297955    0.34072478648751
S         5.44393037334624   -1.06287073403000   -0.99479277545819
C         6.14658265840262   -2.46210170407902   -0.24083492496502
N         6.27840613994259   -3.61918568876356   -0.78695337571923
C         6.65047145964622   -2.30840092042280    1.13893343884277
C         6.61240924492784   -1.24631955758798    1.96499125075986
C         7.13455408179512   -1.41763429944333    3.36628766410333
H         0.33876387846432    1.47368055212095   -0.16934870923887
H         0.53556623080032    2.62559285594109    1.26608204672816
H         1.02083117366584    0.92317136054576    1.42788657046356
H         1.81633836909339    3.81832694915960   -0.20787946878885
H         4.57911686687063    1.58327111130442   -0.83323594588445
H         4.32967783844266    2.86788135391477    1.72345703480357
H         5.96069701789889    2.70294465179505    1.02117594983666
H         6.32147799855070    1.47770896036614    2.95879025937711
H         5.84009658690012   -3.59462506305262   -1.71632956500551
H         7.09590338456337   -3.22622125012260    1.51018248978427
H         7.69554788664899   -0.57333870708401    3.78524284481704
H         8.01379672869578   -2.06784360220770    3.33412027651084
H         6.30472311342984   -1.70342882872479    4.02017145617962
