30
 energy: -48.309880787607 gnorm: 0.127105343961 xtb: 6.4.1 (79825abcba525fcdf90b791dcacef51065a7a4e7)
C         0.95486578998495    1.85661396416426   -0.76038942849064
C         2.44122402050285    1.75983793472155   -0.64514347933670
N         3.32267976785051    1.87732385620775   -1.57591661461133
O         2.93389608892155    1.47358615452070    0.57494623078199
C         4.35231311342081    1.50789123721053    0.81003120803439
C         4.67755755552734    2.01468363380776    2.21550993817130
C         5.85452566629347    1.11780233075158    2.65166521656868
C         5.83431468696578    1.01219329839034    4.11694250095181
N         5.78042114046426    0.71370316822993    5.23842329570477
C         5.75105288851148   -0.12591507482292    1.80154863412914
C         4.94195360915837    0.13358780559340    0.76634694246041
S         4.49898735903095   -0.96257692070921   -0.47387727537358
C         5.42158871663133   -2.35486415697206    0.00608415071532
N         5.39563603583100   -3.43145501417141   -0.69729677685897
C         6.27367795931730   -2.36679217802159    1.21235536296921
C         6.57886895991712   -1.30983511974277    1.98794370739064
C         7.61335672059910   -1.35713277021725    3.08028688025101
H         0.65493089521495    2.63772855575317   -1.46344540890314
H         0.59165819924538    2.14320890877695    0.23036442087461
H         0.42739253577077    0.91657683367128   -0.94543858127772
H         3.02601662045282    1.85552372215117   -2.55773046833451
H         4.78407372542947    2.14859409679014    0.03180181432253
H         3.75556348942585    1.74060352883516    2.74306686239870
H         4.96150458681191    3.07001642215562    2.11263310771372
H         6.78411497536157    1.60880235443439    2.33603316947733
H         4.89960737442635   -3.29739415287281   -1.58748880189851
H         6.86094825555639   -3.27868151237214    1.16543999548063
H         7.28415025805201   -0.72364365291490    3.91298561700683
H         8.56101880359091   -0.97447626736564    2.68992155674812
H         7.68319618890319   -2.40479890561817    3.38912354229287
