30
 energy: -48.306962461140 gnorm: 0.133004759374 xtb: 6.4.1 (79825abcba525fcdf90b791dcacef51065a7a4e7)
C         1.27863086059928    1.32149348358856    0.69429453387321
C         2.57013808743122    1.40671634302162   -0.05179806687248
N         2.78564130910810    1.22181764831438   -1.30737627677978
O         3.51216469136319    1.90136737575205    0.77354488393820
C         4.90424419758952    1.79976845750854    0.42693132513701
C         5.76391750295175    2.42911366097316    1.52368989915310
C         5.94874129565734    1.26673434534444    2.52098420747300
C         4.79951803753777    1.15224229080387    3.42915642778504
N         3.86181840992257    1.18460906820467    4.11427821468146
C         5.92666128993748    0.03190102038446    1.65211312408317
C         5.25294859045718    0.34920177600094    0.53898357986337
S         4.91923820080980   -0.82943807024968   -0.65909730958800
C         5.54074774390895   -2.38436093785781   -0.19438155828929
N         5.58806767852469   -3.43626385295552   -0.93311507239157
C         6.14346019116106   -2.38682393206081    1.15395823997741
C         6.25972195222305   -1.34362840302025    1.99661079429227
C         6.82377933822780   -1.55647355544938    3.37579599294181
H         0.47550986273005    0.95414531172529    0.05052388986262
H         1.14278085117839    2.39380625542092    0.85964174879224
H         1.33262707939463    0.69350889018419    1.58808465987627
H         2.01139034890933    0.71417773819638   -1.74928111416810
H         4.92790807472708    2.12781759882165   -0.61919589102957
H         5.20180283042278    3.26917811424785    1.95010293909786
H         6.71841285514733    2.71877322092133    1.06546198844111
H         6.88834674692763    1.37052550153990    3.07884609804096
H         5.20059709548654   -3.32728679751200   -1.87886828117645
H         6.47432614278167   -3.36484156000288    1.48957534766592
H         7.85870015601809   -1.90347727274555    3.48349862333195
H         6.13521344699514   -2.26705540230858    3.84251321481628
H         6.59676828727162   -0.64626257919507    3.93957248127142
