30
 energy: -48.300506225570 gnorm: 0.129535522426 xtb: 6.4.1 (79825abcba525fcdf90b791dcacef51065a7a4e7)
C         0.79570616196499    1.64937632059206   -0.37148178032753
C         2.20940534323209    1.94894475794915    0.00749235800018
N         2.69875096005169    3.13233154285255   -0.12381793533685
O         3.01805850233855    1.02079796302490    0.55330216911118
C         4.42374994904036    1.26927424156647    0.37826004217827
C         5.14503049083203    2.12746873816019    1.41809153423549
C         5.75622345247152    1.17198139401495    2.46373418043755
C         4.96145617356821    1.09431765246087    3.69698704255404
N         4.21800214417533    0.73269834434193    4.51321473461625
C         5.77188189473235   -0.16387247177526    1.75982574033790
C         5.08394964386968   -0.05201745140425    0.61620708547099
S         4.92112018436608   -1.25529101100245   -0.59274768778587
C         5.96987252325020   -2.54643907834665   -0.08968190044376
N         5.97902829444700   -3.65712561668691   -0.73834030387649
C         6.74194270083225   -2.31449126730100    1.14781413817866
C         6.60827468871079   -1.32141738668591    2.04657672431152
C         7.54813970962475   -1.26408933845171    3.22087772971594
H         0.07845451044244    2.20667745117133    0.23626337747304
H         0.69240167807241    0.56272231504556   -0.43598652796296
H         0.82054475264420    2.10342044821084   -1.36615157773782
H         2.00317039275251    3.85500794449539   -0.33910659282431
H         4.60241269848225    1.68434145130512   -0.62091822331047
H         4.46380485108543    2.78945833188689    1.96691817220237
H         5.94804028677554    2.70170421154558    0.93812721781485
H         6.77582192698503    1.47148449198316    2.73861187184239
H         5.49665705182341   -3.57536832424936   -1.64227189259644
H         7.14652054837045   -3.29018662392010    1.39874231946404
H         6.94713932820429   -0.93925703971357    4.07898906766652
H         8.33070457320450   -0.51074614902210    3.09072097490300
H         7.89913809506456   -2.26269896759338    3.49915978969569
