30
 energy: -48.309048780417 gnorm: 0.131243806642 xtb: 6.4.1 (79825abcba525fcdf90b791dcacef51065a7a4e7)
C         0.90147339933790    1.94810814462373   -0.39552039586044
C         2.38823952602180    1.86938407937973   -0.51895875203324
N         3.15257683157355    2.08828021000420   -1.53137110604364
O         2.90562149451426    1.46025533834663    0.65501498093937
C         4.34174767261296    1.40975248456949    0.59722483648044
C         4.89931486141903    2.13323335653798    1.82347407513760
C         5.86812241154301    1.15899381697871    2.52500858862451
C         5.65247458668169    0.94030187124109    3.96176505425579
N         5.44673262526429    0.82133705853502    5.09897113658388
C         5.74637998854197   -0.16230854699613    1.80419192999744
C         4.89048702866993    0.03169944287377    0.79254274549464
S         4.53952659143421   -1.12312229241801   -0.42366688077431
C         5.66624164800856   -2.40360126247388   -0.09064021064826
N         5.89714292867908   -3.35361216275033   -0.92648111847015
C         6.44438456561390   -2.37018661727415    1.16421661075861
C         6.47320494132568   -1.39215888063947    2.08859108938956
C         7.40694111639051   -1.49030072080598    3.26507761013784
H         0.41543609248267    2.36838606505476   -1.27955821442111
H         0.66735196200400    2.66709133202623    0.39435297083640
H         0.34793304367917    1.03156142037086   -0.17263879686606
H         2.61676297033657    2.44162391164040   -2.33168007614307
H         4.77103444219555    1.73340070371537   -0.35855917224693
H         4.00730882856793    2.48591468186151    2.35587466376972
H         5.34754889028818    3.11147183322217    1.60651189441463
H         6.88106667570554    1.58093257200997    2.55244021260768
H         5.13947227373436   -3.44840177135241   -1.61452813487704
H         7.02329947016830   -3.27439563380209    1.32513023621523
H         7.64535741691715   -0.54276439290186    3.76348017056590
H         8.31329282846567   -1.97647639864190    2.89220458385936
H         6.94334203980471   -2.13814130703939    4.01557107137659
