30
 energy: -48.313488179238 gnorm: 0.130162027782 xtb: 6.4.1 (79825abcba525fcdf90b791dcacef51065a7a4e7)
C         1.11337046096585    1.72591318142768    0.10030763033112
C         2.55699314672481    1.52699479779773   -0.22877144936386
N         3.02269554676270    1.21349897542751   -1.38719600560515
O         3.32766561747008    1.83802406267094    0.83076122838581
C         4.71219684665763    1.63618181481629    0.49807274445995
C         5.52476423880786    2.36424626609316    1.56935670871364
C         5.99654047107884    1.21154496031879    2.47962497976525
C         5.04847649218221    1.19247941731041    3.60185958190598
N         4.23520570285380    1.18455199039491    4.43146662140959
C         5.88106389852079   -0.06154411708674    1.67579217324410
C         5.10802797454760    0.19801961626719    0.61340426672544
S         4.62257012612483   -0.96513446933869   -0.54735219811665
C         5.54929907078558   -2.35351202854787   -0.06402912763930
N         5.58384676700059   -3.48642161318019   -0.67213147962527
C         6.38218908091866   -2.36569633521467    1.15557505441815
C         6.42392542295247   -1.36044381875489    2.04975764175613
C         7.18159816904013   -1.49239585494760    3.34364182042086
H         0.97428607910313    1.91735063782658    1.16726399963984
H         0.59723813808260    0.76551329515045    0.01730708521350
H         0.55151486541337    2.48597666070022   -0.44993125215234
H         2.29660438032197    1.03323534076233   -2.08914995929061
H         4.88047239732601    2.02751872357848   -0.51242076407644
H         4.91182274353246    3.16466821750745    2.00194969301764
H         6.38129739705205    2.80424940939653    1.04239841988754
H         7.01287567470497    1.18185226916849    2.89317304282394
H         4.88197884379479   -3.56457658592494   -1.41894591874431
H         6.79408942031136   -3.36158867476982    1.28659476020958
H         7.88291448973486   -0.66205048337064    3.49113596398985
H         7.60667090723649   -2.48442719183583    3.52269906738193
H         6.38742658023020   -1.43668915597530    4.09467458781052
