30
 energy: -48.310264055656 gnorm: 0.138421735218 xtb: 6.4.1 (79825abcba525fcdf90b791dcacef51065a7a4e7)
C         1.06900050679005    1.61538386228566    0.40194647665488
C         2.45605461915746    1.94485091392116   -0.04464099840687
N         2.91214879704673    2.46484182459937   -1.13031745167214
O         3.31672914475099    1.57612566835101    0.92312230325501
C         4.71947569842632    1.70048210677502    0.63125549996749
C         5.46686769033894    2.22423951169215    1.85807102961681
C         5.95294335626924    1.01475063574166    2.68314590952189
C         4.93775177386965    0.64585351848404    3.67908781937695
N         4.09320017948548    0.36633506575227    4.42629736617920
C         5.96870675339582   -0.06921634975379    1.63195376406548
C         5.35225501666814    0.34943953590420    0.51914629512951
S         4.92163326974025   -0.72469106043065   -0.74448367906776
C         5.63585556743551   -2.27178594633275   -0.40330352309762
N         5.57238526234488   -3.36549328838680   -1.07727823137171
C         6.28980598918703   -2.38460710248324    0.91613151655379
C         6.42609268036185   -1.43342153747320    1.85873908026113
C         6.99805957304808   -1.92720672248826    3.16052465414469
H         0.86746493947768    0.56483837957872    0.17805752500281
H         0.30334370402503    2.21692165709777   -0.09561914533626
H         1.10476953089892    1.75988458980242    1.48545058260948
H         2.22748289057510    2.54418407598241   -1.89017277773274
H         4.98039431424231    2.31614516326173   -0.23790435202620
H         4.68063631273456    2.69984876452857    2.45735838670574
H         6.23024884585642    2.96749052693433    1.59394228046169
H         6.90590202546409    1.08448553036511    3.22337523184068
H         4.88893824579865   -3.29936412090889   -1.84212180798124
H         6.73707958121491   -3.33531683422806    1.18949382540413
H         6.84300870663350   -1.17896158476520    3.94739248764839
H         8.08304106577612   -1.99448941623609    3.03738768756798
H         6.49504755017684   -2.85338115069592    3.45555312416036
