30
 energy: -48.305964366080 gnorm: 0.138178615280 xtb: 6.4.1 (79825abcba525fcdf90b791dcacef51065a7a4e7)
C         0.93871102921017    1.64267503018943    0.35429869114495
C         2.36282051865164    1.92086534318645   -0.00127173878613
N         2.80773017910884    2.11279352434283   -1.19388432180036
O         3.27996886374590    1.70783312472028    0.96140210884621
C         4.68654776588959    1.70553817862983    0.66160356081992
C         5.48466047470114    2.13921373781937    1.89161761104498
C         5.86758313774404    0.91020989570710    2.74179479318343
C         4.97162612082444    0.47294174876515    3.82098750585463
N         4.18810032949621    0.10576980218829    4.59622434945145
C         5.83949236082170   -0.16423982187674    1.68113152630368
C         5.22568281452135    0.31179465205604    0.59014345062122
S         5.11958680258542   -0.57139156843800   -0.87432849439493
C         5.75755162528318   -2.12790196446257   -0.43809889794269
N         5.51418082952441   -3.17908921276441   -1.13827185814856
C         6.47171280440807   -2.35018015112657    0.83542174309807
C         6.47935125133523   -1.46222087962471    1.84700814946461
C         6.92864364447981   -1.84419974468700    3.23187063993809
H         0.96427974217430    1.13887775920766    1.32379505994889
H         0.38338768167586    1.15670874483512   -0.45261044563239
H         0.42504347678090    2.60561665393270    0.42522192496934
H         2.05763313664587    2.33570075417369   -1.85729181835976
H         4.78957154329106    2.31006475546710   -0.24751254205888
H         5.06181055585993    2.90460101863343    2.55410499085082
H         6.43359636924802    2.51888383887571    1.49123261682125
H         6.80438455348299    0.92902140068128    3.31353786544911
H         5.04467121196534   -2.92332100725304   -2.01611121391698
H         6.82208767818656   -3.36993383635762    0.96179216755693
H         7.66355651070447   -2.65360947668800    3.32036643932514
H         6.01253783884930   -1.98791424200404    3.81236251097943
H         7.45829302541961   -0.97217081797194    3.62797549005034
