30
 energy: -48.305502174213 gnorm: 0.134376779639 xtb: 6.4.1 (79825abcba525fcdf90b791dcacef51065a7a4e7)
C         1.17777848139183    1.72210870139245    0.73794269399670
C         2.50096748256560    1.43536080835798    0.10639338013610
N         2.74145482636765    0.80696518984998   -0.99105392725819
O         3.51456576612477    1.91177832485198    0.85400934109589
C         4.84257377606766    1.68341326814238    0.35142324867311
C         5.82985938568382    2.37085319282103    1.29518509886499
C         5.95862806427810    1.31102549485898    2.40876730843817
C         4.80001937213378    1.48883041025255    3.29454980661230
N         3.88830221380958    1.50938213380300    4.01432026974530
C         5.77493737350521    0.02534779752611    1.63835934661079
C         5.14551343805752    0.22335858404285    0.47292243076478
S         4.89339148280893   -1.02012706151640   -0.67865487918832
C         5.81478955468039   -2.41965564368184   -0.21782376257179
N         5.91165418571530   -3.51306329641184   -0.88830350161435
C         6.36454171121106   -2.31211242663854    1.14873966782409
C         6.25417690697900   -1.29511210811962    2.02359223797750
C         6.59433599738531   -1.57171202846945    3.46352275670607
H         0.98961837732986    0.82701398879542    1.33609810030206
H         0.35967750047554    1.62629097857895    0.01879086320929
H         1.30558617802993    2.64576535062028    1.30948850847127
H         1.88672477227153    0.44455336274995   -1.42755927122409
H         4.94114931877065    2.03566246451903   -0.68238608610367
H         5.27106060096285    3.26883038458314    1.58654425434104
H         6.79650286565227    2.41991788719439    0.77737248899684
H         6.89280480704629    1.22454796974455    2.97857109539718
H         5.47051071365518   -3.40922661846600   -1.81083749514311
H         6.77376197905061   -3.22325861163655    1.57415830423906
H         7.68243097198513   -1.63912301174414    3.58426062312795
H         5.99052398400198   -2.42597160012291    3.78371980557999
H         6.19409114987911   -0.71968969264344    4.02184521737331
