30
 energy: -48.309112408454 gnorm: 0.122184437079 xtb: 6.4.1 (79825abcba525fcdf90b791dcacef51065a7a4e7)
C         1.01098472151128    1.72949981114294    0.79239360987868
C         2.32513430904290    2.02155422592572    0.14461038867307
N         2.63504174599895    3.08515158804486   -0.51099912811151
O         3.21886822357210    1.07796829705352    0.49698808114451
C         4.57590502446677    1.15400831413417    0.02686289678550
C         5.40024613898315    2.10214172504322    0.89835455863002
C         5.82790845742093    1.27707778150857    2.12971798421672
C         4.81726673678935    1.28653452680849    3.19607308479432
N         3.90773068252613    1.42909015956393    3.90469295808738
C         5.77227650248139   -0.12507988440732    1.57195746336455
C         5.21314857573702   -0.15909225274427    0.35546863349991
S         4.92684754660735   -1.51711929002160   -0.64939285992659
C         6.12132566552505   -2.59961075429651   -0.00019779302497
N         6.62540792761738   -3.55105519387482   -0.70384592115527
C         6.57752043732198   -2.38143903878954    1.38745346688657
C         6.30999885726986   -1.33146933202531    2.18609786419067
C         6.73210776015580   -1.33254589840747    3.63089491544245
H         0.97678333874951    2.38808469145427    1.66387790680983
H         0.91558716236577    0.71243122397332    1.18241976408170
H         0.11538817180924    1.81771771672614    0.17089103429459
H         1.85115745747230    3.70298394943629   -0.74817271028298
H         4.64591133640626    1.44854794964004   -1.02713135843002
H         4.88168423185155    3.03688609613584    1.14504420664539
H         6.39128992436948    2.17992120910332    0.43282321460227
H         6.83294637603877    1.59089447805329    2.43997394432840
H         6.13962367489495   -3.77611935909070   -1.58123885888332
H         6.96798047219229   -3.29104462462371    1.83331022791675
H         5.89377020284313   -1.53934861042061    4.30727891787276
H         7.19739133380442   -0.38129738112024    3.90568931642458
H         7.58864270426702   -1.99540082206108    3.78848045170916
