30
 energy: -48.313311507364 gnorm: 0.129199432568 xtb: 6.4.1 (79825abcba525fcdf90b791dcacef51065a7a4e7)
C         0.93244372828292    1.65555225767262    0.43953031183651
C         2.32813098681442    1.51314798367158   -0.07397345804986
N         2.76122464311478    1.39984864915549   -1.28091129990228
O         3.21718914964515    1.63074740851124    0.93053175017363
C         4.59340109780326    1.64557034705781    0.51319543293603
C         5.47535665148491    2.27777957900636    1.59044138445115
C         5.85654829875125    1.15026662422010    2.57191420893854
C         4.99898201043676    1.09669286662093    3.76368146831042
N         4.30553684028952    0.95357725881614    4.68475245963630
C         5.81503428932347   -0.07398283778056    1.68889231681338
C         5.21220524182772    0.28388758642295    0.54777363272863
S         4.90864723384597   -0.84069564537867   -0.70885575951725
C         5.88518898084488   -2.22711380959807   -0.32907835917258
N         6.21234704992173   -3.16565918461504   -1.14551348936089
C         6.48999208288679   -2.33061068636442    1.01434644434208
C         6.31722503215288   -1.40975565095014    1.98079075655844
C         6.80514497589596   -1.72275998725907    3.36988327532048
H         0.29899984042617    0.80877571774538    0.16365535622652
H         0.50482345113961    2.53410198333714   -0.05132698401256
H         0.88229598045260    1.73849541811600    1.52890933972541
H         1.95237502412473    1.40393361154394   -1.91193294789050
H         4.57260714277709    2.06050949607269   -0.50166982134648
H         4.97917567028576    3.09572089150826    2.12736383099781
H         6.34845621575903    2.64736776201695    1.03723384374822
H         6.91634530347917    1.28140489662707    2.82583144995052
H         5.66170477858882   -3.05112565053533   -2.00582375233577
H         7.13573278623268   -3.17865704067912    1.22041908985624
H         6.60674107454690   -0.88238023996563    4.04624879507569
H         7.87331055162467   -1.95806536167058    3.34690081979091
H         6.35220749256926   -2.67412743179107    3.66587244463674
