30
 energy: -48.310113635301 gnorm: 0.129874611822 xtb: 6.4.1 (79825abcba525fcdf90b791dcacef51065a7a4e7)
C         0.92450523466268    1.50417332515666   -0.01377496575843
C         2.36156832367133    1.83765544826852   -0.24945987359429
N         2.80872330419198    2.89258265653154   -0.83621946542604
O         3.24337726672428    1.10513136449967    0.45701462170913
C         4.63787936577234    1.36783356639701    0.22313407762290
C         5.11387809575003    2.24921085584822    1.37837960483976
C         5.79187329424464    1.29782892977655    2.38588959690931
C         4.98896073823654    1.04870832101735    3.59082513718598
N         4.24355781885106    0.81434901016675    4.45057525365316
C         5.87659761798097    0.00711242319657    1.60671662921704
C         5.16839203825829   -0.00906118146293    0.47013877702736
S         4.87078863898619   -1.30793032906582   -0.60704434421786
C         5.68275812273072   -2.61322260437603    0.20347253552879
N         5.64853538256934   -3.79202123320514   -0.31007272267131
C         6.52808788324073   -2.33212650813651    1.38147557554592
C         6.62286795288453   -1.16463009022680    2.04465420966153
C         7.47563357786335   -1.08990998307170    3.28272662267655
H         0.88072364871826    0.45547682943936    0.29070408427012
H         0.42278051973229    1.70802277175731   -0.96370513197163
H         0.60359699962975    2.08425061475377    0.85609242303126
H         2.09793457805886    3.50338434188940   -1.25352439146133
H         4.72485612283176    1.83717919247708   -0.76413898109655
H         4.23135907901343    2.80094866493970    1.72515740865005
H         5.85852914312352    3.00386796569907    1.09390760086114
H         6.81105096650995    1.57344139271859    2.68614872005210
H         5.14517855218668   -4.07212780802953   -1.16132520504396
H         6.97712223049493   -3.21498274347937    1.82595575554997
H         7.03577521579066   -1.61782006653738    4.13765826167137
H         7.69452879184943   -0.06580549723163    3.59922210753630
H         8.43377381778253   -1.60362394962340    3.15652360263951
