30
 energy: -48.308732032789 gnorm: 0.126095183524 xtb: 6.4.1 (79825abcba525fcdf90b791dcacef51065a7a4e7)
C         1.38092269642610    2.00328459012664    0.99405097555461
C         2.66699898042031    2.31504412435490    0.30070992776420
N         3.07066050686113    3.42874249820042   -0.20311455909531
O         3.47910649078607    1.24148370520610    0.33584076387806
C         4.87676295572016    1.33281105314655    0.00939875344543
C         5.77106676309023    2.10856507135347    0.97708638837589
C         5.99607978885063    1.13855125320984    2.15535791327394
C         4.89121233785538    1.19888104777844    3.12191238933426
N         4.12188627310981    1.08549901178697    3.98504736713156
C         5.88572770496379   -0.18869496421569    1.44368541784393
C         5.25793079065161   -0.09120564334118    0.26470584725906
S         4.91891004004702   -1.33125949768650   -0.86811528019486
C         5.40105876977045   -2.73901179773396    0.02954058377939
N         5.46776205471708   -3.85839929894866   -0.60052959927413
C         5.82247686814775   -2.59907241395951    1.43812581284094
C         6.17846176170843   -1.46813327205838    2.07537652915959
C         6.67062515524780   -1.56657098349420    3.49442579685995
H         0.73480026388199    2.86084519536183    1.19777694232657
H         1.64427650962225    1.38829810749152    1.85897062636313
H         0.86040937705880    1.29989271738910    0.33796653816463
H         2.34429127399172    4.15235521330802   -0.23797269011923
H         4.98333125943012    1.47429818387825   -1.07281331864247
H         5.22291724383537    3.02186147592023    1.23963363328711
H         6.60683368591942    2.31519278403874    0.29610511181342
H         6.95818002340459    1.18952948534014    2.68129066826278
H         5.18558492649687   -3.85848838969278   -1.58887905506700
H         5.86517712646832   -3.58279718825104    1.89539145560608
H         7.23279362629426   -0.67735405565836    3.80480042315942
H         7.31192718226848   -2.45015469208497    3.56432608490430
H         5.90193540647713   -1.71500548944967    4.25924291691507
