30
 energy: -48.314570536325 gnorm: 0.126247636652 xtb: 6.4.1 (79825abcba525fcdf90b791dcacef51065a7a4e7)
C         1.06669969816512    1.39297132946323    0.32410085699771
C         2.44494277165434    1.37989774110261   -0.25225244868563
N         2.79975142461461    1.15254463719958   -1.46861061678726
O         3.35865679089525    1.67883247949538    0.69064174822276
C         4.76630729045239    1.71056731891924    0.39762020595199
C         5.56091797914204    2.43586656505184    1.48414116724254
C         5.91468176458249    1.30377500564270    2.47060015094296
C         4.94235367482091    1.22780524118185    3.56942041881367
N         4.27160847255783    1.27823018711959    4.51666814637305
C         5.86466416692582    0.02258363850039    1.67292556964346
C         5.20670297052283    0.28756340056905    0.53692436813132
S         4.95882813018275   -0.89417301184612   -0.67880974608331
C         5.50224749291992   -2.40181022716106   -0.00668967263381
N         5.57148813396401   -3.54629128604376   -0.58964333368561
C         6.08116916557965   -2.36261074269115    1.35147146644752
C         6.39691802015791   -1.27232119848275    2.07494116941513
C         7.17636643013828   -1.37011032009465    3.35888550852770
H         0.41856767221436    0.54088574808978    0.10441085453174
H         0.49239306893084    2.22267637823850   -0.09710103544926
H         1.02983258164756    1.50764100999472    1.41113016225479
H         1.95778137979687    0.98329032306421   -2.02975421150325
H         4.85103834393928    2.07122588709266   -0.63451564415851
H         5.03401969067853    3.21250253347498    2.05222922074857
H         6.44567760847052    2.76227768993690    0.92236449121075
H         6.91413487645114    1.49296322221594    2.88308310543012
H         5.15690827313256   -3.55202146896011   -1.53014813980416
H         6.20085216085709   -3.37481769770548    1.72529317095464
H         7.06942926781829   -2.32209930303985    3.89307083130477
H         6.89592265071666   -0.54189781596526    4.01637303215689
H         8.23455690987343   -1.36616145396580    3.07945881165071
