30
 energy: -48.303652928825 gnorm: 0.144519651538 xtb: 6.4.1 (79825abcba525fcdf90b791dcacef51065a7a4e7)
C         0.99798601075010    1.37311741255405   -0.44881420684994
C         2.46315891461121    1.60100983963282   -0.63113651298448
N         3.21659213029973    2.03228832668086   -1.58163273148333
O         3.00223490402686    1.57260427507372    0.60250644632570
C         4.43678820250847    1.52819161478209    0.69433771530937
C         4.90521650430377    2.24352276957567    1.96196115897447
C         5.86957145566302    1.27306011904229    2.67477474100141
C         5.38263387348016    0.81262395820129    3.98224926669643
N         5.02458038379575    0.55435862317199    5.05687328224508
C         5.87954784559459    0.03710007503142    1.80728351030642
C         5.09781789476420    0.18653195814680    0.73016033821377
S         4.47396180719514   -1.00416281987709   -0.33238464527500
C         5.61720899195980   -2.29955204350864   -0.14537501134217
N         5.66173717087915   -3.41612121730684   -0.78236531849345
C         6.52621278434592   -2.20719251330904    1.01500009864877
C         6.65844752941174   -1.19111302398560    1.88788810304875
C         7.44064939121773   -1.30463820874495    3.16885956189332
H         0.35744732776489    2.22342756542250   -0.69594068770699
H         0.79352121351719    1.20337567105805    0.61186081131918
H         0.63636410160116    0.53621664688039   -1.05293980102505
H         2.75511115762885    2.01268307859603   -2.49765328730977
H         4.69608967425728    2.02649453762712   -0.24747718897604
H         4.07756994235939    2.42999836698434    2.65747340774087
H         5.45336277444057    3.18149255258563    1.80484590535277
H         6.78634530881645    1.81617019204146    2.93820980520992
H         4.95702815020883   -3.44219439745157   -1.53013799286959
H         6.97529784497396   -3.18924858611431    1.12688432469507
H         6.88738597704182   -1.08265823581828    4.08956419664286
H         8.25097306249978   -0.58045539530061    3.04312447812644
H         7.91996224621496   -2.28851036254582    3.15805509152803
