30
 energy: -48.311603045331 gnorm: 0.131179521653 xtb: 6.4.1 (79825abcba525fcdf90b791dcacef51065a7a4e7)
C         0.86890170849877    1.73001999573608   -0.03848001825354
C         2.31199611374198    2.02159519181308   -0.29219340618510
N         2.85172782530049    2.85505375484194   -1.11142617364040
O         3.13111942936668    1.39430856368398    0.57315812043227
C         4.56502247979882    1.44431261263565    0.47431291883602
C         5.22949051684544    2.26476687936073    1.58035544769367
C         5.90838457390949    1.20618399057537    2.47388032114843
C         5.18734528908866    0.78526954331998    3.68281904420547
N         4.57621099659685    0.43798852376876    4.60782223634586
C         5.93485412434976   -0.05243563529044    1.63996539256828
C         5.11667107226050    0.05808564197989    0.58545706162176
S         4.68386306069032   -1.20012299401853   -0.49414510353413
C         5.77621125300155   -2.47783077227322   -0.05339756688573
N         5.73162568890887   -3.59167540992502   -0.69513622472559
C         6.50634932094715   -2.36878494927959    1.22578038118676
C         6.64984998909771   -1.27160734725554    1.99223076561832
C         7.29375350019626   -1.45636512546346    3.34014347806043
H         0.47117918936874    1.10057082846029   -0.83847952197279
H         0.35762477445473    2.68869137575567   -0.16174676831265
H         0.72214157428958    1.21828006379386    0.91688626730150
H         2.18768841733436    3.19230717204834   -1.81694336902656
H         4.92496954378993    1.89317576255770   -0.45923859426071
H         4.46674353283080    2.75989157791238    2.19401486496292
H         5.96866422003190    2.99516693769929    1.22669616413605
H         6.92317666675264    1.45424519213617    2.81078332446583
H         5.25283248411257   -3.65832164871533   -1.60220510711601
H         6.86796898469562   -3.36843452911222    1.44614747043115
H         8.19932507514053   -2.04938543670939    3.16311347741470
H         6.71857217319203   -1.95414023998671    4.12643918381406
H         7.66942811525452   -0.49126673216582    3.69414303054018
