30
 energy: -48.306921476343 gnorm: 0.127579472641 xtb: 6.4.1 (79825abcba525fcdf90b791dcacef51065a7a4e7)
C         0.87657392644437    1.47679308269544   -0.23401942640252
C         2.34856725906784    1.52625108759426   -0.48441422082795
N         3.08110270311862    1.43325826698968   -1.53885718428447
O         3.00000223282337    1.57622464962337    0.69304909789948
C         4.43740688414434    1.61283585913882    0.66344973947373
C         4.88602902279631    2.20975745036281    1.99777193742121
C         5.82136458684886    1.17357160585009    2.65454260553186
C         5.36682921367016    0.94073155459748    4.03214283755584
N         5.01716594984365    0.84516484057203    5.13591938224596
C         5.74212879099172   -0.05252759726255    1.77668142998606
C         5.11252180941791    0.27790375125443    0.64176464726870
S         4.99406555867724   -0.75163719991042   -0.72277405220050
C         5.63094426960219   -2.25150292950460   -0.11878044196380
N         5.39795313047665   -3.35278170447983   -0.74116804580582
C         6.52352075418275   -2.28213861827933    1.05750917436642
C         6.49317204986104   -1.28659772502663    1.96294516316842
C         7.35908368069057   -1.43232802418492    3.18547341690636
H         0.52723089941508    2.27361508804936   -0.89539889388613
H         0.71737374603567    1.49757813640976    0.84758719813119
H         0.39376181660777    0.54988215974298   -0.55630755436729
H         2.72722382017853    1.49153753075554   -2.50001064513950
H         4.79496914340608    2.26467882885277   -0.14265716215013
H         3.93729571715817    2.27504595688910    2.54471964596086
H         5.34890732421256    3.19991949139340    1.89648195253856
H         6.89149932099464    1.40911723163334    2.71912437393768
H         4.57661996574941   -3.23901833315081   -1.34856274151471
H         7.18607832281734   -3.12836941524497    1.21093833982502
H         6.74881520357529   -1.52893265779472    4.09173633249143
H         8.07543262004260   -0.60625374038558    3.22180497790839
H         7.91812512666747   -2.37316624974299    3.19804547807664
