30
 energy: -48.314225955422 gnorm: 0.123654609662 xtb: 6.4.1 (79825abcba525fcdf90b791dcacef51065a7a4e7)
C         0.83011753752884    1.69840853244558    0.27100261457543
C         2.28426152729237    2.01650950501835    0.14378214201428
N         2.76850929443789    3.16424659583031   -0.18073207609230
O         3.16228918052820    1.06972790590926    0.52582506728014
C         4.53160491435133    1.28027148063821    0.13982704524011
C         5.31056890136164    2.20307923068569    1.07771505041660
C         5.82009939173715    1.27257468353933    2.19772461134228
C         4.74506080377365    0.98170473626662    3.15599703685074
N         4.08890653545299    0.61807760438408    4.04310298313044
C         5.93604143018351   -0.06734380812698    1.51112887109056
C         5.23330748477075   -0.02049739275133    0.37200800370629
S         4.94575781778604   -1.35145799030922   -0.66809362401322
C         5.94974470061101   -2.58519317536246    0.03185480444920
N         6.22479016205031   -3.74462006670384   -0.45244408211573
C         6.43876650042890   -2.40444924801985    1.41369339594215
C         6.55083506189768   -1.25048929054815    2.09754578752707
C         7.14836404048869   -1.17359302710673    3.47691581581531
H         0.27021570352149    2.54922419372163   -0.12524390643721
H         0.55185005168098    1.66910065579810    1.32805410863313
H         0.60119627751383    0.72681882948281   -0.17593086605786
H         2.03811738194191    3.79536998539277   -0.52808439621035
H         4.54244641595255    1.50716439616098   -0.93300119718920
H         4.68264773081539    2.97075969758197    1.54664039279137
H         6.17681058386556    2.58874889416079    0.52470409568555
H         6.69771724194347    1.56398031791600    2.78908792089294
H         5.85575185478420   -3.87376284874706   -1.40301835933688
H         7.03168019765538   -3.26220343832023    1.71591964314168
H         6.43392094478647   -1.02089402551182    4.29503965336233
H         7.81662225364809   -0.30739162594404    3.47613994543682
H         7.78985123413380   -1.99597180691304    3.80865257030305
