30
 energy: -48.304199004419 gnorm: 0.138607901651 xtb: 6.4.1 (79825abcba525fcdf90b791dcacef51065a7a4e7)
C         0.73359453420605    1.64914965503381   -0.06460941897638
C         2.18920258669957    1.97219530141503    0.02895729489767
N         2.79308814537330    3.07415498793800   -0.25052953854250
O         2.99109929310327    1.01994589899504    0.54224815109756
C         4.39071943119642    1.34367445150939    0.47433687559013
C         4.95907290246369    2.06829953628753    1.69494564369994
C         5.82870055441119    1.11266114171899    2.53778872422320
C         5.02899963082103    0.84591007886861    3.74108487273922
N         4.16699864512684    0.69433143190205    4.50508636643946
C         5.83862848865492   -0.13097032527376    1.68133087775075
C         5.13833119431918    0.05023361280159    0.55422184225724
S         4.95839724674788   -1.12500135925768   -0.67963344245676
C         6.10027735215642   -2.37650125503691   -0.29249287411069
N         6.40454160007325   -3.32648490347626   -1.10453996321719
C         6.59841333848951   -2.36592879929708    1.09784426301550
C         6.52372636150786   -1.37483204043180    2.00558107952143
C         7.32639910814444   -1.57112331966763    3.26367559266845
H         0.72056340720994    0.55854038311987   -0.13382115881114
H         0.44781865439566    2.01569357615127   -1.05437065653809
H         0.18056034366426    2.03991652447339    0.79422436502276
H         2.13938333467573    3.81227843942332   -0.53387827069803
H         4.62135316952177    1.96061930020707   -0.40244445502013
H         4.11800452843079    2.62477731732325    2.12673927635311
H         5.57860238691465    2.89640204427889    1.32702403239322
H         6.87110722241300    1.40560762119392    2.71782094032813
H         6.04114168875723   -2.99955162747201   -2.00870462149407
H         7.17534421464144   -3.26491537579004    1.29176051383475
H         8.36928411175465   -1.24955034494137    3.15388382059237
H         7.29662509378513   -2.66210315144627    3.33951114876794
H         6.89195174390440   -1.07209308084072    4.13550485869957
