30
 energy: -48.306625793028 gnorm: 0.126457456056 xtb: 6.4.1 (79825abcba525fcdf90b791dcacef51065a7a4e7)
C         1.04652107624653    2.22147018882942    0.76758216124521
C         2.43398949861670    2.24954488221501    0.21436320936933
N         3.02798370476702    3.07564954641298   -0.57419736151458
O         3.14195761493449    1.15571806508931    0.55437614019487
C         4.51601975191591    1.20906171692439    0.13312047206329
C         5.33202391012072    2.09800651978908    1.07221966794233
C         5.82770357175150    1.16036132465813    2.19248955377680
C         4.74428299807375    1.02418308781483    3.17547209214488
N         3.75717963505496    0.98980008216319    3.78716223354233
C         5.85965666575977   -0.18590011663662    1.50926414155552
C         5.22257187395355   -0.09416428597410    0.33481387126430
S         5.02120822032496   -1.42475438578035   -0.72581565029838
C         5.92189285490409   -2.69060264153910    0.05291110410225
N         5.99664096599103   -3.84161813206962   -0.51633594030882
C         6.40917695183469   -2.56334226305178    1.44130859366530
C         6.43293107701952   -1.38858669711307    2.09798366664756
C         7.10233424964849   -1.41100578572423    3.44594968168080
H         0.73397142908948    1.18296591904527    0.63263676994670
H         0.34074844484698    2.91044508454794    0.29551416634330
H         0.97909974779661    2.45134104532585    1.83470670123900
H         2.52076338059821    3.94051944241275   -0.79138465039882
H         4.61666724552989    1.64981358318713   -0.86596222603965
H         4.76803714147664    2.94808065199061    1.47570717285935
H         6.25354720699283    2.45183840516710    0.59207940664685
H         6.84099901710183    1.46615143572826    2.48329128497619
H         5.59845218839797   -3.87579759294283   -1.46329742260334
H         6.58516473240657   -3.45218213394239    2.03932330312037
H         7.01225387919649   -0.38499139480849    3.82311349664196
H         8.09203557846958   -1.85912329473927    3.31727766553878
H         6.46430982789202   -1.95953210655846    4.14588230323608
