30
 energy: -48.309203287061 gnorm: 0.139670227113 xtb: 6.4.1 (79825abcba525fcdf90b791dcacef51065a7a4e7)
C         1.05414522419329    1.39428123583031    0.25695839632220
C         2.47230352879758    1.66298734748470   -0.12844018982469
N         2.82249558268631    2.11026824585633   -1.28360733417423
O         3.38639632296762    1.52921108320883    0.85126539333391
C         4.76181044522357    1.66612818657825    0.45397664054477
C         5.61810030860039    2.29102920384292    1.55591100277017
C         5.95280271375287    1.12949201244130    2.51439266870150
C         4.94770553811551    1.00770407312359    3.57907416215210
N         4.26857747637382    1.01790263889777    4.52162449589508
C         5.81113349502261   -0.09678912145981    1.64467877593382
C         5.28686869242565    0.26525460550701    0.46667338278545
S         5.04492767434255   -0.90050958635274   -0.76556471109253
C         5.46416146209226   -2.44297924473287   -0.08361870586040
N         5.16275985660801   -3.60375563622493   -0.54861480507231
C         6.12872638580755   -2.42992535665594    1.23527159934332
C         6.38662079661586   -1.37717340111828    2.03341998280577
C         7.17263734634818   -1.43000726635251    3.31599636503174
H         0.30589094253255    1.95563646311223   -0.30818273405799
H         0.93391079264051    1.59033713510962    1.32595576413463
H         0.89372012902988    0.31557627528952    0.17449369033180
H         2.08249643924454    2.43176701878091   -1.91723381686678
H         4.83194768053410    2.09911994329738   -0.55108916698942
H         4.97097356112212    3.05374561058740    2.00646613742141
H         6.52185863770897    2.67482656269539    1.06513882659313
H         6.96223389907892    1.19502673984842    2.94053206161766
H         4.88436153628922   -3.51535003388877   -1.53407784955055
H         6.48911746818297   -3.40121268609489    1.55984639685024
H         7.60681719931906   -2.43500074903947    3.38343894673741
H         6.40822499909112   -1.09304610992867    4.02239954976333
H         7.97113049607558   -0.68209268609443    3.28608926090996
