30
 energy: -48.314154120058 gnorm: 0.125967266861 xtb: 6.4.1 (79825abcba525fcdf90b791dcacef51065a7a4e7)
C         0.88821174862242    1.45749465890541    0.16363625224198
C         2.26924564399577    2.02278147318246    0.23508007155189
N         2.75486849654046    3.18421565419041   -0.03389371251681
O         3.13752613819410    1.06181404203179    0.60374704136060
C         4.51659666486329    1.41118244796552    0.39290385663339
C         5.12760633972016    2.21932631734728    1.53813903194067
C         5.68687184648567    1.13731842867459    2.48490323880801
C         4.74811365106050    0.63937062863860    3.49948706713348
N         4.05112098260187    0.33625933998744    4.37814788213339
C         5.95919435068024   -0.02827605164559    1.56432310932159
C         5.28487698385581    0.12766320964361    0.41776086702646
S         5.25774308597929   -0.96925676407067   -0.89828724792979
C         5.93964578539645   -2.42781974150442   -0.24435856420612
N         6.07143165497521   -3.52207272329286   -0.90746416087898
C         6.43364721974078   -2.43276818063783    1.14748434318413
C         6.50505422539445   -1.33153607390757    1.91821511941583
C         7.17204727667793   -1.49974753859577    3.25703578681506
H         0.24012483749555    1.69142233943461    1.01195803936344
H         0.89960534783586    0.36790585739073    0.07244394949006
H         0.36301651259216    1.97788113717476   -0.64228490270979
H         2.12004882250535    3.94219744166870   -0.30759118080128
H         4.61527677677631    2.04371246554455   -0.49744797205342
H         4.37454204294690    2.78981613339207    2.09576328249844
H         5.93936151166982    2.86525166624989    1.17929249234190
H         6.51235078872391    1.59249885055131    3.04725205345543
H         5.78927881838376   -3.38744192290019   -1.88660812993540
H         6.70393715292421   -3.43557436889982    1.46363731775340
H         7.57325427265467   -0.50443343475002    3.48387345945376
H         7.90750171425177   -2.30455004870265    3.16607315665992
H         6.50937900380817   -1.65252788495198    4.11458513397538
