30
 energy: -48.303955392173 gnorm: 0.134694469737 xtb: 6.4.1 (79825abcba525fcdf90b791dcacef51065a7a4e7)
C         1.00102750153216    1.72431422576775    0.73040599937762
C         2.37389160075335    2.07370071840142    0.25597869465154
N         2.87697209268072    3.22417320827268   -0.02762116109864
O         3.19351561865588    1.00885261630297    0.34315521533215
C         4.56821920866796    1.24353530300871   -0.00821742591053
C         5.28581624227596    2.11561421506309    1.02257150240949
C         5.66086115207528    1.13079538328966    2.14922789298040
C         4.74841632943601    1.31107421300118    3.28656833519578
N         4.12521320487323    1.39486079987654    4.26346020656182
C         5.67531294459587   -0.24436315924292    1.52555495109619
C         5.20500482744491   -0.07867277349693    0.28258153637295
S         5.26240522011708   -1.29791809150310   -0.91995676950078
C         6.03100539889694   -2.62557558125601   -0.10350142203012
N         6.23355368430347   -3.77034471963687   -0.65390486934867
C         6.47117504647952   -2.51722549341602    1.30212994156091
C         6.26862835815226   -1.44734758353683    2.09344097069376
C         6.73952120314358   -1.45699419315339    3.52305017282956
H         0.73228345482312    0.73580595532921    0.34959542199333
H         0.26243988718741    2.40304554312802    0.29513396746907
H         1.09333737607461    1.81814977462287    1.81613838264710
H         2.18645858416157    3.97727887199441    0.06438789936259
H         4.49930036390175    1.59142235468577   -1.04589905232136
H         4.66856748166916    2.94793601384111    1.38278485534372
H         6.21835616046633    2.58882210287043    0.68883440354241
H         6.57797447163417    1.55876683278188    2.57418023010216
H         5.60105486274591   -3.72979887957000   -1.46307720474344
H         7.08454825288358   -3.36336031221709    1.59616868849138
H         7.75662344441390   -1.84694428561493    3.65155890446587
H         6.14810562838309   -2.17805560109720    4.09504018411088
H         6.71063626693648   -0.44930747828429    3.94918994505532
