30
 energy: -48.309578908469 gnorm: 0.131398966343 xtb: 6.4.1 (79825abcba525fcdf90b791dcacef51065a7a4e7)
C         1.02305232274166    2.02933104350945    0.07571197415391
C         2.48653090569670    2.29529993249521   -0.06356834574521
N         3.09995989264223    3.22906857395503   -0.70301092210122
O         3.21761979337632    1.35895976029933    0.57051435517667
C         4.64854087907140    1.46123571568419    0.46876408391926
C         5.40137398348695    2.17312717635779    1.59323987062142
C         6.01036911849259    1.01158617089304    2.40553837198309
C         5.36528985678298    0.73691338383645    3.69667233618497
N         4.90420866021422    0.44834784735917    4.72324630972851
C         5.80330791467912   -0.22378605399599    1.56220038753350
C         5.13049401519821    0.04527833550739    0.43590035815005
S         4.79303230967516   -1.11891064810790   -0.77518837784969
C         5.52582491411491   -2.55984740616619   -0.13742961672894
N         5.36510686446977   -3.70626620442064   -0.69810759001072
C         6.19423510120422   -2.61496979109323    1.17842673474561
C         6.35461364717421   -1.51763265390519    1.94129434148753
C         6.96527582291813   -1.61883673786243    3.31332387887471
H         0.62760819732329    2.39945987221247   -0.87350731176773
H         0.58042681488531    2.61906364825886    0.88314477063493
H         0.70823401498782    0.98444611447640    0.14814089208743
H         2.40559413380997    3.91579037839307   -1.01719569143681
H         4.86622315447060    1.86742725070303   -0.52631442476332
H         4.85586738111871    2.97417640032606    2.10729429349811
H         6.25835392024936    2.73747612413351    1.20332641076406
H         7.07877470790729    1.20288821783960    2.56910464115561
H         4.86473935815760   -3.78797017590224   -1.59220792256786
H         6.41124515725376   -3.62165512966437    1.52211390859448
H         7.21841894376121   -0.68800936620370    3.83538853269829
H         7.91892912126219   -2.15398292381813    3.28109882483550
H         6.30139458042982   -2.12432915995219    4.02156188227436
