30
 energy: -48.304643863355 gnorm: 0.122109966728 xtb: 6.4.1 (79825abcba525fcdf90b791dcacef51065a7a4e7)
C         0.85854047301578    1.56742196765999    0.39917297613246
C         2.24391707296781    1.99432284252146    0.03807000510759
N         2.57216089510089    3.11417611664781   -0.50533634326880
O         3.10041691977138    1.11884266268263    0.59773709066229
C         4.51458651184372    1.31237944889979    0.42162177908584
C         5.08280572912440    2.07160858664394    1.62107626958974
C         5.48520693829668    0.95605041671415    2.60772960657163
C         4.32671443072673    0.72730766123318    3.48189854851873
N         3.57756252728725    0.69851509211607    4.36940210164647
C         5.81563116209278   -0.21880631048640    1.71847731955494
C         5.22566747911186    0.00109184228057    0.53643927761270
S         5.23485051063129   -0.96677023522427   -0.87746002647464
C         6.11309432935868   -2.33152782165001   -0.25605464026098
N         6.26792985332014   -3.39552548223568   -0.96202998390103
C         6.77561149015277   -2.34502488329957    1.06386113303718
C         6.65235570162542   -1.37904412177588    1.99312240126712
C         7.54114262402879   -1.46902562239147    3.20455832145969
H         0.75074468583180    0.47992731992432    0.38803200947611
H         0.01727120773278    2.10545218690497   -0.04629208000429
H         0.88231669646243    1.91395272856295    1.43623235520738
H         1.70212741028867    3.59099425637610   -0.76635150006705
H         4.58466088160606    1.77823082016741   -0.56864612571278
H         4.34827165378289    2.85759666390832    1.83599892324985
H         5.95516188279260    2.62594700647987    1.25142704337314
H         6.38618178289867    1.16388327769024    3.19924530350007
H         5.87612985513336   -3.31051540688407   -1.90845729517820
H         7.41839190614265   -3.21697944675306    1.13568240985871
H         7.45250306648443   -2.45267930605583    3.68167576130502
H         7.22923309658274   -0.84926831226209    4.05042348929686
H         8.57381801847705   -1.18899351040428    2.97428553335087
