30
 energy: -48.316317768469 gnorm: 0.130678409110 xtb: 6.4.1 (79825abcba525fcdf90b791dcacef51065a7a4e7)
C         0.83703731091290    1.61215071369989   -0.37104139845651
C         2.28105935476464    1.99111956643940   -0.31544478417311
N         2.92335862215105    2.81725408296958   -1.06515088198431
O         3.06833612627251    1.28504213781215    0.51818266877807
C         4.49873009965629    1.42969048730151    0.55558133237702
C         4.95738605613467    2.05752989437613    1.87218508259090
C         5.91480662744997    1.06169553016007    2.55887375712085
C         5.53694708192849    0.98435967500065    3.97656230421317
N         5.14612948996042    1.02858026530524    5.06973488798908
C         5.83537147961862   -0.15805073966045    1.67222432532763
C         5.03060405880762    0.03276543817242    0.61886548284154
S         4.86524068690096   -1.04430666665960   -0.70345187775630
C         5.59690225471712   -2.49974964734693   -0.09816086679733
N         5.60774892294180   -3.61114698052471   -0.74557461959399
C         6.35701640787997   -2.46665193396144    1.16770635393255
C         6.55193569676116   -1.39383288941382    1.95694844695410
C         7.32453103430013   -1.48295783421502    3.24565672529531
H         0.59015687272929    0.96050299520974   -1.21294041987533
H         0.26382696576626    2.53787094540362   -0.47164737448229
H         0.59128774557306    1.16404343775073    0.59588572080766
H         2.41344122017888    3.22245296814308   -1.85776732283169
H         4.77770828039133    2.02542608589654   -0.32181750018476
H         4.12945846747583    2.30013698494947    2.54981847680403
H         5.45754300278078    3.02044018444227    1.70610168168396
H         6.88764984572940    1.56687600389603    2.61552841175451
H         5.09487915108665   -3.64081577348430   -1.63582344371663
H         6.82951490387704   -3.41490278840610    1.40476162145838
H         7.90325884246937   -2.40182203718167    3.40004354899401
H         6.70698081982602   -1.49560785410819    4.14862198878110
H         7.95024135075393   -0.59599650187180    3.38582877076231
