30
 energy: -48.306733261618 gnorm: 0.135732647513 xtb: 6.4.1 (79825abcba525fcdf90b791dcacef51065a7a4e7)
C         0.81629078564002    1.96202925500525    0.06401715453543
C         2.27882942604725    2.25492445735195   -0.02025115586176
N         2.93675647883680    3.24273003251313   -0.51872677924801
O         2.94147838485430    1.16542877108597    0.41239218661013
C         4.37048186339150    1.28930284754622    0.51704839576048
C         4.75725265829601    1.97776962956164    1.82640502745515
C         5.67923373756400    0.98617283504964    2.56570749420948
C         5.01109191502009    0.61664411211144    3.82095023873058
N         4.30104883701542    0.12642788644812    4.59892642663609
C         5.77029040889023   -0.21728174330689    1.65815936726905
C         4.96829122289177   -0.07997942734066    0.59440594697251
S         4.95551124766049   -1.14495782696568   -0.74783472321043
C         6.10779110729460   -2.37439111640443   -0.32267016846028
N         6.49890758821055   -3.31821467096856   -1.10413746914872
C         6.75730576165447   -2.32073731208177    1.00267528963163
C         6.65635184235541   -1.34285155595152    1.92212339928614
C         7.35829051548963   -1.47156626716590    3.24738950245559
H         0.36357125970367    2.01533261010510   -0.92925644422581
H         0.36696366446461    2.70380504004046    0.72999270194790
H         0.64544607812434    1.06187319882621    0.66123754203757
H         2.22496113186428    3.82668579614821   -0.97125938985338
H         4.73973257314407    1.88987108844426   -0.32290998107446
H         3.78782650811952    2.00161918313201    2.33938983697887
H         5.06200497811610    3.00930587119752    1.60732545436385
H         6.64803855215110    1.45875664426529    2.77288538107604
H         5.86131993982859   -3.37841201888880   -1.90807581243775
H         7.42400196301441   -3.11195053479956    1.33150264528279
H         7.62088476344751   -0.47638680305903    3.62651302030290
H         8.26636486053431   -2.07044581694645    3.13068997275118
H         6.73334232078833   -2.08896496266423    3.90016861591312
