30
 energy: -48.309443539472 gnorm: 0.131598969713 xtb: 6.4.1 (79825abcba525fcdf90b791dcacef51065a7a4e7)
C         1.06181910951188    2.57804838092893    0.34731880803311
C         2.54338014029362    2.50147416663406    0.17119004491129
N         3.31746731993578    3.38615943958965   -0.35343060757533
O         3.09639019076404    1.34779616630316    0.59129924243566
C         4.48130193824207    1.14342201523105    0.26175502144251
C         5.31747515567023    1.97761498859292    1.23280057835507
C         5.79663124779891    0.98987571341988    2.31661889097031
C         5.00610541615805    0.98094961764876    3.55500037697732
N         4.26319673875128    0.86274773641404    4.44034502891992
C         5.71882350353392   -0.33896915755748    1.60362844239931
C         5.06942955772792   -0.22084616945626    0.43831271560621
S         4.77693678210735   -1.38037861932835   -0.78883236693645
C         5.65080265966706   -2.71719893183712   -0.10378491806829
N         5.76627506572563   -3.88762549614497   -0.62458625203467
C         6.37020086187415   -2.57039231904201    1.17769970895631
C         6.43029236201235   -1.53450898635182    2.03512145228032
C         7.26096756447180   -1.69352355098171    3.28023547391884
H         0.66097706597076    3.34974868667687   -0.31464263815931
H         0.74741401044499    2.93129683522399    1.33322680242652
H         0.48352710375685    1.68176877930642    0.10565319939625
H         2.87250146937072    4.23962843958128   -0.70845000673809
H         4.65626540350405    1.60591527229075   -0.71704333087072
H         4.74794368864366    2.83385066086073    1.61490487500571
H         6.20646723782390    2.40976324128453    0.75543503877374
H         6.74486437370739    1.27160467931002    2.79235381300858
H         5.14708330259405   -4.06142812604163   -1.42636727796680
H         6.78983840876454   -3.55959700407066    1.33264527395543
H         6.62770026603259   -2.16037605472982    4.04449580771889
H         7.59547093772820   -0.72889315965557    3.67326251904383
H         8.11347416133409   -2.34839663275358    3.07472207435559
