30
 energy: -48.312495189277 gnorm: 0.125851792408 xtb: 6.4.1 (79825abcba525fcdf90b791dcacef51065a7a4e7)
C         1.04757677149651    1.77665950394110   -0.61942892571639
C         2.54073276228106    1.82495176243686   -0.61161454616788
N         3.19605215386238    1.82045795288878   -1.71960466614746
O         3.07145200530594    1.62844130833627    0.61027148640343
C         4.50694093118884    1.54466589909696    0.63676415596938
C         4.99993651339415    2.28242545648369    1.88201879949781
C         5.97388259321094    1.24029271265338    2.46961543886595
C         5.64757361924682    0.98464434733372    3.87914219281701
N         5.27897356966271    0.78304292841078    4.96229081205760
C         5.90478623617536   -0.04613242971678    1.68185033361518
C         4.97817711683451    0.12783365787215    0.73066303803539
S         4.38519393509334   -1.13558482271649   -0.26336764773526
C         5.46642796324715   -2.45007713923937    0.08743557185610
N         5.30767412787427   -3.56382432083872   -0.53612722993136
C         6.43454093008576   -2.33386159146390    1.19673255816485
C         6.61892039365940   -1.27373416661105    2.00541735277489
C         7.38316759913172   -1.40823084156911    3.29516633880396
H         0.73183945142990    2.79844975198504   -0.84446957155422
H         0.64527678394783    1.40580017641938    0.32728522606700
H         0.66736072401656    1.12107521876402   -1.40796302929146
H         2.58458007695975    1.95546585909827   -2.53220387682073
H         4.97557543624397    2.00527070707356   -0.24117848469477
H         4.11479893760439    2.40122828609703    2.51914251520113
H         5.50320346366226    3.22718187844528    1.63892513383271
H         7.01195009204348    1.59450840796362    2.42733062580961
H         4.48721673930950   -3.51484983679342   -1.15330610330046
H         7.05765134115048   -3.19286542150554    1.42580774783681
H         8.15110088119613   -0.63223730519954    3.40092571716953
H         8.00359363775599   -2.30343412590567    3.19241849636134
H         6.78508721627489   -1.38135322412603    4.21137559663818
