30
 energy: -48.311876290700 gnorm: 0.127145351342 xtb: 6.4.1 (79825abcba525fcdf90b791dcacef51065a7a4e7)
C         0.75179699678312    1.73835277167921   -0.17063645177111
C         2.20983438991016    2.05141997006306   -0.08106016403503
N         2.76375493346795    3.21217169943761   -0.13521976569988
O         3.04226033161203    1.04216812256196    0.23794221005244
C         4.43364774109913    1.36542906062241    0.40495147354290
C         4.66883513315718    2.00196420020610    1.77517147450658
C         5.68985055030519    1.10417931338587    2.50413735713782
C         5.09990053028186    0.78290396460985    3.81078973160961
N         4.61923321247559    0.30126394920781    4.75243822539643
C         5.83801136038132   -0.10228039794718    1.60817912022167
C         5.09724195280242    0.02793457904807    0.50005877568853
S         5.16363921749217   -1.10453427466019   -0.78409776908885
C         6.01762238680822   -2.49598689257890   -0.18862120390249
N         6.09649360165668   -3.58522787970224   -0.86817954660403
C         6.73515730596231   -2.35979363771769    1.09507799271288
C         6.60829198469470   -1.29986533531221    1.91501349792905
C         7.31153682356277   -1.28210398160058    3.24570762158862
H         0.21352507458903    2.67172784681298    0.01229240291418
H         0.56745343118222    0.97646081410071    0.59172022432907
H         0.37058258048714    1.29134671115661   -1.09313424633530
H         2.16009635303819    3.99240850935319   -0.41676825460248
H         4.79213021773585    1.98801587902579   -0.42356185568008
H         3.73199028604172    1.98528695700638    2.34574388498935
H         4.89351688327020    3.06674724388546    1.63132421366565
H         6.66270743480145    1.58143004951586    2.67912910600367
H         5.41041362606490   -3.76857754143117   -1.61123792415196
H         7.28946246220379   -3.26911641817013    1.30604595036305
H         8.21305944552867   -0.65827512220699    3.21154531898142
H         7.82009039292123   -2.24611245519595    3.34023509631499
H         6.65817248955497   -0.92852259549487    4.04942225567585
