30
 energy: -48.307648481057 gnorm: 0.131010583718 xtb: 6.4.1 (79825abcba525fcdf90b791dcacef51065a7a4e7)
C         1.00104147900008    2.06151049580231   -0.27520469852446
C         2.46250958326143    2.32410924805417   -0.11070273415679
N         3.07801283823828    3.35303156743314   -0.57929681263355
O         3.10004755364912    1.21617495643689    0.31274938116074
C         4.53794452720405    1.24291877033452    0.32200720782090
C         5.09949551572215    2.11123604610219    1.44836351482591
C         5.76809900064157    1.14971643128625    2.45252029470765
C         4.98930612962187    0.94500494888426    3.68141173302484
N         4.46326048599397    0.65425487031260    4.67562520521499
C         5.80259280271383   -0.15345324025235    1.69042005057871
C         5.00298817358579   -0.14832410524338    0.61606812402315
S         4.67182370852597   -1.43475699608006   -0.46623166287428
C         5.72352777717876   -2.71351051685824    0.06171526009080
N         5.63037849088686   -3.89732313689585   -0.43262978315826
C         6.50601641281093   -2.52991497100260    1.30078458168351
C         6.59907368902290   -1.34769389279886    1.93759750538258
C         7.54457293212422   -1.23951970525333    3.10376435888448
H         0.97468856950781    1.44803587362295   -1.17927497844491
H         0.36586174349329    2.94748022041402   -0.36037486219864
H         0.56875028098065    1.49422210868742    0.55392088685282
H         2.41936484571814    4.02070693648174   -0.99503126690740
H         4.90574116068712    1.57165257575078   -0.65738959080199
H         4.31493701993605    2.80205865828700    1.78114174040843
H         5.90593914780943    2.73718549185159    1.04491238436868
H         6.77492949493885    1.52015126199406    2.68470832230711
H         5.20084316363859   -3.99219481678179   -1.36158476134716
H         6.97580625084387   -3.33529331945020    1.85692559480441
H         7.96372388886508   -0.23303557013821    3.22365889982228
H         8.38321409335640   -1.93521740365201    3.00598796486200
H         7.09080421701978   -1.55848595583406    4.04727717995614
