30
 energy: -48.309466477553 gnorm: 0.132140762235 xtb: 6.4.1 (79825abcba525fcdf90b791dcacef51065a7a4e7)
C         0.96084744556687    1.96175400741500   -0.44900004383565
C         2.43855965755639    1.77498802739176   -0.56472863613409
N         3.12999645736355    1.67585651821009   -1.64602133550348
O         3.06358316471606    1.57736321016823    0.61152592715993
C         4.49603918967953    1.45148487099920    0.63546382162774
C         5.06659820542416    2.19310422071542    1.84478433049589
C         5.92095933992019    1.16338331298526    2.61265368668085
C         5.36429053888295    1.01495410188865    3.96420387733242
N         5.02043708643974    0.81457689472636    5.05568628113763
C         5.81179566892159   -0.11857651831609    1.82214745435204
C         4.96516247718266    0.04001647453862    0.79662980551764
S         4.61641820651051   -1.02453094303748   -0.49993047350204
C         5.39184069442056   -2.47030568059806    0.07319722674192
N         5.47813356090699   -3.53140812782669   -0.64866237515015
C         6.29414141940866   -2.39389417983891    1.23994624855767
C         6.54879128856315   -1.35323784468776    2.05482347565641
C         7.56787806312356   -1.30368323011378    3.16144992775929
H         0.44911601809246    1.72166093680378   -1.38434753102074
H         0.92376508557439    3.00566905496408   -0.12571088695554
H         0.47316245118706    1.45474108317503    0.38840205249615
H         2.49682775971118    1.64440991369163   -2.45258889259846
H         4.91265177834607    1.76224173612442   -0.33015644449381
H         4.22290673757973    2.51323792668824    2.46865001227962
H         5.70948293101281    2.99223687054967    1.45360266494579
H         6.95512325682275    1.49644602370451    2.76890705984557
H         5.02282376852856   -3.29475684587816   -1.53925080738263
H         6.80035640251495   -3.30256280496241    1.55090819810599
H         8.46442396391907   -0.86394208957789    2.70768156660713
H         7.77565913101291   -2.34708691375763    3.41642109172416
H         7.25968536705508   -0.77238548530001    4.06732074128910
