30
 energy: -48.306301245808 gnorm: 0.127892125718 xtb: 6.4.1 (79825abcba525fcdf90b791dcacef51065a7a4e7)
C         0.98308971377888    1.64675963097720   -0.87596757415055
C         2.30453864866916    2.05848239198184   -0.31368196840741
N         2.80827298803980    3.24281819441601   -0.28710696548597
O         2.90947574808395    1.10262967364136    0.41685306949796
C         4.30633918785687    1.32751286997241    0.67482347307935
C         4.55880886494096    1.86216343518334    2.08493013002369
C         5.73892950218786    1.04121818004706    2.64461363519608
C         5.34104084989470    0.64736870373907    4.00298270595871
N         4.84651397974658    0.07500321401453    4.88477689470864
C         5.83486652089034   -0.13463699375892    1.70206467436869
C         4.99011751586006   -0.00317417970648    0.67117059323696
S         4.81457511660147   -1.10240543393122   -0.63145285719339
C         5.87965650349121   -2.37593250335120   -0.11788647230728
N         5.82443544856450   -3.45962844605523   -0.80855273464038
C         6.75789555476495   -2.28830453656921    1.06630359128979
C         6.74720956278212   -1.24874990643095    1.92131765394579
C         7.70716591224131   -1.14437404745818    3.07596266812698
H         0.58215204822840    2.58624375121125   -1.26456406847710
H         0.21770207732530    1.34299259673830   -0.15655325606743
H         0.95225730694150    1.03703118696095   -1.78339339344977
H         2.22252202811013    3.86494988334380   -0.85481348112653
H         4.71167566228559    2.05924688059599   -0.03427881353474
H         3.66059821664517    1.78975366876620    2.71061673701500
H         4.90689039987224    2.90269212404132    2.05212536485920
H         6.69146127780890    1.58663691240439    2.65113486569698
H         5.12252323620584   -3.50679777217652   -1.55792106094898
H         7.34201038351298   -3.18269117797664    1.25998377957066
H         7.90423450731246   -0.09223640734596    3.31521755875812
H         8.53940388406700   -1.82196744149022    2.86354406220323
H         7.19432293477125   -1.46491986823383    3.98816024685403
