30
 energy: -48.305242792856 gnorm: 0.133487848644 xtb: 6.4.1 (79825abcba525fcdf90b791dcacef51065a7a4e7)
C         0.89295969235644    1.72750709236659   -0.40325713835591
C         2.36135687373038    1.96732339066999   -0.26832796711658
N         3.11306056563461    2.61397376251519   -1.08923640469293
O         2.88631343393229    1.36202925602302    0.81394943390245
C         4.31406074806403    1.48863196274931    0.93166944709291
C         4.80934754922213    1.97537679198991    2.29393351328033
C         5.60495838929885    0.82067609468277    2.93701290852881
C         5.24400542347164    0.24851270019214    4.24121430129269
N         4.98139888880452   -0.23620222378085    5.26386247781721
C         5.73503350291984   -0.14370497365943    1.78233224772252
C         5.04791144881504    0.20788480144596    0.68785801059489
S         4.84374592113959   -0.66208604227707   -0.77413360754736
C         5.91871387543058   -2.01070671741750   -0.56039039669313
N         6.00041578539701   -3.06823693844037   -1.28800346603718
C         6.56094231949259   -2.18631459373276    0.75793926819806
C         6.53028413347351   -1.36339218168505    1.82269081074233
C         7.37779385258865   -1.67023423738346    3.02817446993639
H         0.38390510319681    2.62097664185408   -0.03317032682324
H         0.52276354656277    0.89263415587419    0.19806773193673
H         0.60083764201408    1.58977288235189   -1.44816623752728
H         2.61757698207050    2.98867170695417   -1.90565552604466
H         4.63017509942539    2.15545626660651    0.12051259567562
H         3.93689479925180    2.37693712070486    2.82410778950995
H         5.52038200787825    2.80980517454635    2.23829068376773
H         6.62436382429818    1.15029506009458    3.17576968321759
H         5.47026569974978   -3.07154819525103   -2.16856494078286
H         7.20447354488969   -3.04695421173698    0.91220082959222
H         7.91795708339327   -0.74471735923122    3.26208629418683
H         7.89660601454683   -2.57984211560041    2.71143803940608
H         6.68343363475577   -1.70537994655507    3.87344995100928
