30
 energy: -48.312260339765 gnorm: 0.121427837502 xtb: 6.4.1 (79825abcba525fcdf90b791dcacef51065a7a4e7)
C         1.07009219153696    2.17091806695351    0.62660030442543
C         2.45389129310286    2.30664888230039    0.08017079041362
N         2.91813422382124    3.12481893528036   -0.79856811996124
O         3.17705558637674    1.23270149528386    0.45024533381278
C         4.58578497323354    1.18799737424708    0.16418292074573
C         5.31295575120500    2.04254458790230    1.20291516034430
C         5.81499573448398    1.11252934043594    2.32670737315321
C         4.86397093701044    1.14279407937332    3.44618723809397
N         4.13010530328245    1.26229349094783    4.33886925021405
C         5.79184468048363   -0.22227074006064    1.62100872515239
C         5.13028863250352   -0.17426283882808    0.45753772120613
S         5.01374501745067   -1.39087885494284   -0.74338499864181
C         5.83646128344329   -2.74708938841125   -0.03356043412565
N         5.99343998884071   -3.88033306963314   -0.62142315947378
C         6.47452011972962   -2.56671291625881    1.28614932139386
C         6.38317982040128   -1.47571125220914    2.06922617352120
C         6.92318279355314   -1.40559996774521    3.47247127236108
H         0.85312612944972    1.11032041754326    0.47677703180572
H         0.38293433414406    2.78406073114473    0.03709223920779
H         1.05403470688415    2.38578587063959    1.69884795060905
H         2.25048473080696    3.86107314935855   -1.05276607350832
H         4.71065100075973    1.40229079792694   -0.90401424017063
H         4.51709623551216    2.71085515433870    1.55430937142469
H         6.13410771963088    2.57299166339665    0.70364349051042
H         6.81668527151424    1.47802699522826    2.58722690127219
H         5.41729597696566   -4.00112349355994   -1.46399442531304
H         6.93026926456071   -3.53377963553378    1.47510508050375
H         6.53438718970823   -0.52422030827481    3.99695236655061
H         7.99242451048334   -1.20367350625142    3.35923537329153
H         6.84636075675747   -2.37093312312180    3.98246365971171
