30
 energy: -48.304700399570 gnorm: 0.140879275153 xtb: 6.4.1 (79825abcba525fcdf90b791dcacef51065a7a4e7)
C         0.95678134989258    1.62230848340506    0.90642805229031
C         2.31248506257610    2.00497525650213    0.40889251958723
N         2.53177456767848    3.23158617446993    0.08571520612500
O         3.09996541831136    0.93613560391302    0.18363435638144
C         4.50086450184843    1.25689238549033    0.12936197307345
C         5.07713401946525    2.08415026126827    1.27894920178925
C         5.58370440632668    1.13588010918784    2.38531786182495
C         4.50364621510764    0.90550854293574    3.35433930458481
N         3.72847945831036    0.98563765619914    4.21597489419752
C         5.74652424047093   -0.10373543838486    1.53851161829504
C         5.31165314940065    0.00821895733726    0.27677500397256
S         5.38100020966213   -1.13102598503713   -1.00121727475028
C         6.26632910188401   -2.44927980564483   -0.29522889457866
N         6.69756982165259   -3.46926813623210   -0.94953874826095
C         6.64086249600570   -2.35280007193980    1.13014999610315
C         6.44733711701889   -1.30962128984235    1.95849956228397
C         6.84373632997147   -1.52332306610823    3.39474982474889
H         0.81562090019985    0.58533088283132    0.59156325220357
H         0.19309732618085    2.31318018464582    0.53882417455968
H         0.85940536699144    1.58549682997663    1.99514465948191
H         1.72611348928686    3.83384703315949    0.28729595362423
H         4.68637113329181    1.76651770321036   -0.82375276105441
H         4.33540765134049    2.85725112204841    1.51488632094943
H         5.91733164897767    2.67183439383424    0.88698981271227
H         6.51025887449657    1.41015456584236    2.90600129209193
H         6.34741064383557   -3.48367406708977   -1.91578903015266
H         7.10257909910902   -3.27883321725596    1.45864657060861
H         7.84109100610616   -1.97945959663931    3.41194456695010
H         6.30745049010712   -2.36256223818400    3.84746344129201
H         6.80725359627891   -0.71066126654963    4.12694635641430
