30
 energy: -48.311945916794 gnorm: 0.132962098121 xtb: 6.4.1 (79825abcba525fcdf90b791dcacef51065a7a4e7)
C         0.82158913667002    1.75315790325262   -0.08031645623500
C         2.27982686813719    1.91243747109404   -0.36330189810813
N         2.90956342446055    2.65820172265953   -1.20257143683031
O         2.94651675501561    1.10172616775765    0.48023620538244
C         4.37209048451712    1.24839369887870    0.35950170695158
C         4.88261884838889    2.07928358039215    1.53720104531412
C         5.76890728136122    1.17531779548106    2.41880192181062
C         5.32657071219441    1.09154231976856    3.81734377240966
N         4.93047379666352    1.14177989912862    4.90835406906530
C         5.79548580782123   -0.10761991402830    1.62281057570095
C         5.04454180760873   -0.07906799862620    0.51425573752862
S         4.98426619883788   -1.27781721270687   -0.70857683056115
C         5.79832890990206   -2.59316422459116    0.08337273732655
N         5.90540972542596   -3.78513941265855   -0.38800290083888
C         6.58007294010879   -2.40077448217255    1.32157750615630
C         6.57206696012035   -1.26547887527600    2.04467974037134
C         7.26700831729826   -1.08159540724851    3.36712406558615
H         0.58414225373963    0.68987516259129   -0.16655710942499
H         0.20407436094704    2.38422641953469   -0.72535725815981
H         0.51949151188755    2.15403973654545    0.89136858096945
H         2.30791585610349    3.33378153200453   -1.68636357985211
H         4.65993969417374    1.70622182294586   -0.59448708221638
H         4.03301389393548    2.41751159733747    2.14323940924568
H         5.41274410595197    2.93608611913123    1.10154811810495
H         6.77131576793398    1.61777073176716    2.48402092984201
H         5.47265432694206   -3.90951624790407   -1.31196813598871
H         7.21215025626867   -3.18207744610939    1.73227636704760
H         6.54192184906108   -1.06479462434732    4.18994840404246
H         7.89415133206495   -0.19221168225852    3.47920766710523
H         7.91694113277142   -1.96198444273655    3.34803340397463
