30
 energy: -48.304370935810 gnorm: 0.138948704156 xtb: 6.4.1 (79825abcba525fcdf90b791dcacef51065a7a4e7)
C         0.74251412152819    1.79030692540997    0.21538936017378
C         2.17656159481740    2.00001316341888   -0.14715605747648
N         2.63059889808844    2.99635620602657   -0.82410250617500
O         3.03500241637463    1.15817597770896    0.45920546462550
C         4.44996312847020    1.17500815148442    0.20239503006636
C         5.20338812212771    2.12679579710302    1.13214989331963
C         5.92770007019201    1.30275337035396    2.21668105833792
C         5.16990302718221    1.31091359880307    3.47536152958131
N         4.33184917565708    1.30185323411355    4.27991345116557
C         5.93930564515549   -0.03387513408903    1.51416581063866
C         5.06035313207788   -0.15557650786267    0.51104192505904
S         4.89764355700821   -1.55380000162558   -0.46591725218718
C         6.11994091761997   -2.65715319427200    0.08961944797021
N         6.33997166925775   -3.76338102715360   -0.52869495819592
C         6.67192950710226   -2.36753402702549    1.42854369690335
C         6.60775307953621   -1.19479620067991    2.08611855552199
C         7.08701144847584   -1.26733707968545    3.51113261845969
H         0.21633635812455    2.72873332732220    0.40743496006545
H         0.68332855209497    0.98282240678264    0.95031481957458
H         0.26503614096389    1.21943476812745   -0.58602238943462
H         1.94028929929445    3.63274762174684   -1.23752884819227
H         4.61629070796965    1.41161712014889   -0.85539028491758
H         4.52962602799049    2.84546499156121    1.61492161988802
H         5.94572519204354    2.74047640280605    0.60558680779648
H         6.90428766983744    1.73464837358976    2.47081558997982
H         5.90214717610669   -3.87001023794975   -1.45249067895762
H         6.96329466321465   -3.28541897388602    1.92976548856612
H         6.21714717284467   -1.09197467286087    4.15584709395093
H         7.91052221905509   -0.58684292069222    3.74699755408510
H         7.38483319683269   -2.25910947594023    3.86546541690725
