30
 energy: -48.311138073698 gnorm: 0.125856343948 xtb: 6.4.1 (79825abcba525fcdf90b791dcacef51065a7a4e7)
C         0.98971660004945    1.65364433636122    0.33429747613891
C         2.37852811064033    1.80801220888341   -0.19417313373542
N         2.84430754804558    2.27586491748516   -1.29928361795251
O         3.15870845491700    1.37919341607668    0.81613268905018
C         4.57991631691211    1.59668851786183    0.78130706085240
C         5.06626618464687    2.15082867835257    2.12085382448730
C         5.68016184140983    0.91517923171098    2.81091478579425
C         4.70094055039242    0.31179296555322    3.72505379249383
N         3.87148128633438    0.05475139378373    4.49683555494921
C         5.89949772818504   -0.13530144669057    1.74854939755435
C         5.26241998755728    0.27250838645450    0.64335739339875
S         4.93700821695338   -0.64982329599787   -0.76354133051509
C         5.91381436257371   -2.05650685411861   -0.46839515977767
N         6.06577718398827   -2.95183640754950   -1.37930599687657
C         6.60512959460567   -2.21105130300657    0.82755549038040
C         6.56384083059394   -1.42067541132500    1.91633394353938
C         7.36443631273868   -1.73575157281075    3.15140064012713
H         0.87119116755416    2.30176637593465    1.20623681201116
H         0.84541419784864    0.63718329660993    0.71063958246971
H         0.21496074551510    1.93501557494048   -0.38453812811015
H         2.14505149696114    2.64885423820499   -1.95071485585271
H         4.88877811683245    2.28362593747667   -0.01573735985044
H         4.29878131778162    2.48835862178211    2.82834928333495
H         5.85129241638587    2.91737402451180    2.15370108196345
H         6.57879875879547    1.09626427696590    3.41465387077932
H         5.69168824340832   -2.88281416106685   -2.33416305823944
H         6.99643844208348   -3.22364924416034    0.81520589087362
H         7.92839168630036   -0.85680300165874    3.48677556374680
H         7.96291363077422   -2.64713186994847    3.06148171998575
H         6.67403758793161   -1.93502466169620    3.97693189165482
