30
 energy: -48.309078388357 gnorm: 0.116536284028 xtb: 6.4.1 (79825abcba525fcdf90b791dcacef51065a7a4e7)
C         0.96805946040474    1.72092399193018   -0.12922468127884
C         2.43217365950845    1.86496121543741   -0.38909178618842
N         2.96959420942623    2.12219243650445   -1.53019522516863
O         3.10900784161799    1.64347830632187    0.75376671980328
C         4.52995571517627    1.54393632960083    0.55540547691139
C         5.24512899499893    2.24590893988512    1.71028840528378
C         6.00112804304722    1.16043366158145    2.50407068749919
C         5.41900920129817    0.94784537877112    3.83619050092434
N         4.94024987518111    0.68762199208661    4.86224769494757
C         5.79432105135480   -0.09994511794299    1.69851867099637
C         4.98955751656062    0.12343964563737    0.65157986910734
S         4.66062589952724   -1.06368182334300   -0.53942766313969
C         5.62346351061625   -2.42265425907418   -0.04328490250338
N         5.67981294420914   -3.46463899821352   -0.79532126168300
C         6.28308132738202   -2.38109674020419    1.27749740462501
C         6.43188218557395   -1.34051699589823    2.11826441396016
C         7.31493251101409   -1.44338428089560    3.33286560579201
H         0.38246395336210    2.40544158299453   -0.74801562202614
H         0.69529159304192    1.96094160091351    0.90210399790426
H         0.60930616360228    0.70009467947815   -0.28842461056501
H         2.40468770692381    1.98391126447490   -2.37529975920147
H         4.65581721610490    1.90752094481574   -0.47149446120862
H         4.49933880538221    2.77773833113259    2.31399674807446
H         5.98300971173501    2.93915371931759    1.28616509585346
H         7.07831398082958    1.35858399541386    2.43162892666653
H         5.14544596468880   -3.40694645890949   -1.67143888481915
H         6.41616273517672   -3.42441882478922    1.54656613960713
H         6.81901883328428   -2.05394948812194    4.09729499822038
H         7.49842634648642   -0.42395541978186    3.68495837824942
H         8.26096269468221   -1.89647342160377    3.02045707716919
