30
 energy: -48.313011594874 gnorm: 0.127569085432 xtb: 6.4.1 (79825abcba525fcdf90b791dcacef51065a7a4e7)
C         0.81614383861193    1.66974978062196   -0.48954289112369
C         2.22106823494654    2.05243415907777   -0.15540497631167
N         2.69193225705664    3.24905697629065   -0.09635645434646
O         3.11030870030685    1.05953156667223    0.03611687156889
C         4.43014869655825    1.39655603531750    0.49740379010336
C         4.59529911004311    1.96743149011193    1.90624004956307
C         5.61565539984951    1.05077728624111    2.61228515748457
C         5.10438192462538    0.67271857559205    3.93677393820186
N         4.59522667227049    0.27201700732463    4.90109718818853
C         5.90610374476699   -0.12215016588463    1.70668089461170
C         5.16306106682817    0.09753155081198    0.61431932700297
S         5.05842143388062   -1.05925430526733   -0.64538286037463
C         5.89475368755570   -2.49916851837328   -0.14817509679029
N         5.75982570034237   -3.58159028170078   -0.82980830504730
C         6.71121336116999   -2.37230172075276    1.07599288466027
C         6.65404338981485   -1.34853524043359    1.94804284055420
C         7.68751482870919   -1.24166481568915    3.03713941186804
H         0.14709519311464    2.50657613505053   -0.27394088580814
H         0.58646544412800    0.74161373766763    0.04098602485060
H         0.72467551613780    1.36761331806036   -1.53667618635036
H         2.03746592490973    3.97177292470191   -0.41541474606765
H         4.84223230616485    2.00063498839150   -0.31980741691545
H         3.62843678161484    1.91352630197639    2.42177936076787
H         4.91170964154455    3.01624723936598    1.83690897143817
H         6.56465326134722    1.58462388443693    2.75103622993062
H         5.22796190314979   -3.51749713626994   -1.70700359809399
H         7.37754202227769   -3.19352847340900    1.32139553029313
H         8.64099145400258   -0.83714635928165    2.67614116637909
H         7.82722568953226   -2.18661572507853    3.57045283874356
H         7.33858669205979   -0.53002401943745    3.79190993375635
