30
 energy: -48.310447733395 gnorm: 0.129794975793 xtb: 6.4.1 (79825abcba525fcdf90b791dcacef51065a7a4e7)
C         0.92837066973383    1.58891698952022    0.03346575514951
C         2.40590368302189    1.64866420604894   -0.17921825280939
N         2.98001160807646    2.03340016606865   -1.26525883183435
O         3.05591239790825    1.42151024489552    0.97800882225286
C         4.47383570468064    1.66200718344936    0.97984458965956
C         4.91309977459940    2.01360295725721    2.40161124699938
C         5.62022230403353    0.76863094224439    2.97598381479273
C         4.75459799790435    0.20575329033725    4.02119317092371
N         3.94615970064697   -0.21248565337768    4.74315145153865
C         5.83989031191064   -0.10236631273586    1.76216852638927
C         5.18248272477106    0.37500139537981    0.69748018137560
S         4.99021682395659   -0.43462452862850   -0.80034891658095
C         5.89558376181237   -1.90251615950578   -0.58674918777702
N         6.11309425220385   -2.80354328984662   -1.47854817681148
C         6.51578744748387   -2.20567974620404    0.71890306998685
C         6.58247853521510   -1.35546188061485    1.76030545535721
C         7.50517054338077   -1.64768497998114    2.91306766916065
H         0.77215995149759    1.81827828304380    1.09052784777287
H         0.59135650985146    0.55048972354157   -0.02768877131663
H         0.38524409429528    2.28954186413939   -0.60706475842413
H         2.40757105939625    2.38432181058802   -2.04089310800557
H         4.55800130661763    2.37534980704952    0.15122114082254
H         4.01133699580842    2.15987718476933    3.00901310088911
H         5.60505971371749    2.86466023008780    2.44438758491943
H         6.54939671996600    0.96834345236163    3.52515656750105
H         5.83143511291909   -2.47254939684639   -2.40998242630029
H         7.08267414594175   -3.12826273870781    0.79706765517855
H         7.30514455586232   -1.23750388415338    3.91047110243642
H         8.56391356073121   -1.40344076604592    2.78546481096635
H         7.52947633722483   -2.73311753556390    3.05129704161371
