30
 energy: -48.311501268548 gnorm: 0.126880015984 xtb: 6.4.1 (79825abcba525fcdf90b791dcacef51065a7a4e7)
C         1.03474940972626    1.96199034673973    0.48118819032212
C         2.39716207505133    1.59402234991171   -0.00905593783610
N         2.79802781833250    1.17774043933415   -1.15932626946519
O         3.34907435105492    1.70515683342557    0.93688111143364
C         4.69368797380144    1.58127486083664    0.44189008859752
C         5.60622114683756    2.29320707512736    1.44110411907842
C         5.91987552297724    1.19901133937588    2.48237164722846
C         5.03351949512032    1.23507492203342    3.65355553867974
N         4.26451470463051    1.15126339623486    4.52034693099079
C         5.75291512985161   -0.06730549071330    1.67688811043400
C         5.14526381688891    0.15633739403084    0.50455296715512
S         4.86935247691951   -0.97175111001501   -0.75530479523922
C         5.84716878656991   -2.32444944422319   -0.27146342845990
N         5.94562885482520   -3.37654982180987   -1.00485047225243
C         6.37623989139634   -2.38399731328890    1.10615277854677
C         6.33078056367263   -1.36776232659707    1.98764977816966
C         6.81950243793297   -1.65341096419894    3.38234379603694
H         0.71343726270271    2.73492236091719   -0.22146625165971
H         1.09229867161121    2.34155514555518    1.50503791204237
H         0.27224302661657    1.18842106638374    0.35345559909156
H         1.97583345933804    0.93209373441576   -1.72155117622078
H         4.76324440154441    2.06673738187095   -0.53894955823467
H         5.13715168374282    3.09445320235393    2.02547365478393
H         6.49313614429872    2.61796674979649    0.88177434468188
H         6.91203862067000    1.34753508574287    2.92778603785408
H         5.31471711551213   -3.40677902037811   -1.81571122493186
H         6.58208596839143   -3.37168714041044    1.50705901245956
H         6.22590599802249   -2.45426581259543    3.83988868342821
H         6.73470246628094   -0.81290819551964    4.07749742564234
H         7.86122517292640   -1.97209784583478    3.27691902413876
