30
 energy: -48.316783997973 gnorm: 0.118358016411 xtb: 6.4.1 (79825abcba525fcdf90b791dcacef51065a7a4e7)
C         0.93734907542119    1.99713560219816   -0.17117103208693
C         2.41125286472962    2.23374947463963   -0.23058090818790
N         3.00899648937169    3.32323968909616   -0.56646698290991
O         3.09274185458911    1.15970194993587    0.21132344084481
C         4.52683909716903    1.23500985888948    0.28905728314638
C         5.00063862732416    2.10813204563378    1.45145338677452
C         5.81547172587032    1.16026980316930    2.35560258097069
C         5.21338781074899    0.91067266634384    3.67233933882929
N         4.65757911484217    0.81672670428355    4.68819906647366
C         5.82397347872965   -0.19247766684151    1.68460323946980
C         5.09195511792911   -0.12242717042363    0.56528723409867
S         4.76434097420034   -1.35972547443490   -0.57388547181037
C         5.76703094831931   -2.65753721562992    0.00084718976730
N         5.74684925638202   -3.85067322918584   -0.47924176682757
C         6.48642070712207   -2.48433543915073    1.27903666355557
C         6.49792951503139   -1.41592597471710    2.09769781816180
C         7.38786431567285   -1.29460478397199    3.30555255242140
H         0.53608050877248    1.46381455979502   -1.03658472808251
H         0.49322123079962    2.98966796747999   -0.05593401101487
H         0.72676683685335    1.39077795256580    0.71433817470487
H         2.41789464572605    4.07765817815485   -0.93238236914017
H         4.89504702889537    1.60298224272787   -0.67612543617127
H         4.14140344908015    2.47341498815890    2.02746778793999
H         5.55334796923411    3.01501409104109    1.17393899395427
H         6.79689738660939    1.57378631969081    2.62140091018323
H         5.34829413223752   -4.05990643255756   -1.40327309288113
H         6.85809136861284   -3.47154937637882    1.53574520573739
H         8.31689875893168   -1.81308012739860    3.03881127929594
H         6.92902287519367   -1.83055820787089    4.14167037520787
H         7.50398298772880   -0.25443770057011    3.62560083106017
