30
 energy: -48.307819748304 gnorm: 0.128645661328 xtb: 6.4.1 (79825abcba525fcdf90b791dcacef51065a7a4e7)
C         0.88855353574252    1.76329111353549    0.43646261036068
C         2.25253646031839    1.73234132268152   -0.17222508772611
N         2.71659098638329    2.09177304242799   -1.31789870803468
O         3.18079797075074    1.19654322903114    0.64296551964441
C         4.55806691789877    1.39567283292801    0.27988660251982
C         5.26597982895228    2.30431410319423    1.28548259677070
C         5.77742693430155    1.29984824512044    2.33874022823063
C         4.87645273619449    1.06558770803719    3.47538740608537
N         4.31499004017315    0.81777793033588    4.46183052087479
C         5.80124454551161   -0.05535729686566    1.67309130155926
C         5.28766674773513    0.10015177515561    0.44602947307959
S         4.88598370960827   -1.18894324035828   -0.60888148118687
C         5.94329413515803   -2.42142402579637    0.01007389396382
N         6.14078314926406   -3.53166633959285   -0.60865563914604
C         6.46635776711534   -2.37008800217603    1.39031214773515
C         6.47397708562162   -1.25711499465285    2.14732607159626
C         7.15653718705960   -1.24720086924193    3.48882859544163
H         0.62227917121302    0.70337769723793    0.44483948335128
H         0.20418968777495    2.32647592306051   -0.20394241808691
H         0.94815594549845    2.19990168780227    1.43744202567581
H         2.12613697144392    2.71254150889950   -1.88221535696186
H         4.68765209177215    1.70511046997367   -0.76415094807773
H         4.50400963427779    3.00541912127704    1.64792217329227
H         6.01358854982717    2.87270079526666    0.71719163051174
H         6.80121486267846    1.54402094129657    2.65031505704425
H         5.66718032193751   -3.72377235332077   -1.50042591553670
H         7.06411939587769   -3.22856401231862    1.68070770597244
H         6.61535040615408   -0.66307528806094    4.24314067439207
H         8.16810617158643   -0.84191024242491    3.39217350763184
H         7.24838612035246   -2.27888440803040    3.84245949366936
