30
 energy: -48.305946211153 gnorm: 0.125927758529 xtb: 6.4.1 (79825abcba525fcdf90b791dcacef51065a7a4e7)
C         1.00780862461681    1.02962324538952    0.43479496885761
C         2.36840060858903    1.56770599751042    0.13286049734337
N         2.70071180924137    2.04369853374660   -1.01609823934726
O         3.33141770563212    1.51211434568503    1.07243082011594
C         4.70500100483361    1.76256513851668    0.72762367098778
C         5.41714306947834    2.23085834134190    1.99709131767168
C         5.71192688777601    0.95052571071281    2.80562845201636
C         4.70912426016639    0.60038262413201    3.82070775713145
N         3.86083221197917    0.33133840313702    4.56752491016027
C         5.87709046383845   -0.03527191347852    1.67374424619267
C         5.38038019419913    0.44296278654572    0.52561689145528
S         5.34619888061520   -0.43757013060722   -0.94388838000020
C         5.95295693717200   -2.02205531365920   -0.56802757367665
N         5.90331353303415   -2.89637640477438   -1.51013388140989
C         6.40968615506751   -2.26746768925303    0.81488954836933
C         6.44980053057568   -1.36712249007001    1.81469273032382
C         6.73369690133746   -1.78518478274483    3.23252289690595
H         0.67235953775231    1.35094630489568    1.42404420942470
H         0.97925842813521   -0.05191068286405    0.27630568021810
H         0.34680815233639    1.52160592807859   -0.28435205798647
H         1.91236762756379    2.15569002107711   -1.66294758104264
H         4.70117870029322    2.47883013772284   -0.10274263698457
H         4.84957157422645    2.93046475888679    2.62312864016933
H         6.43253546157723    2.50146657266322    1.67978021350606
H         6.62645893680972    1.00564602452280    3.41013964469747
H         5.34241711327386   -2.65363441837338   -2.33652974207677
H         6.81593943499881   -3.27330293575179    0.85828696355043
H         7.67278545423520   -1.33684766541757    3.57919141557135
H         6.61564296939410   -2.87056215335526    3.16256755447193
H         5.96417486077804   -1.45259860319770    3.93614511407094
