30
 energy: -48.308594594094 gnorm: 0.131122544153 xtb: 6.4.1 (79825abcba525fcdf90b791dcacef51065a7a4e7)
C         0.78958175304219    1.58527671179012   -0.06753804424581
C         2.20651384423397    2.05649084051924   -0.02096839189529
N         2.55616864645099    3.26415413041805   -0.29736795985073
O         3.05150358458462    1.07430762284603    0.34590113333194
C         4.46543722507316    1.31427563289528    0.45339878526647
C         4.86431348986320    2.06889202631456    1.72203777185803
C         5.59688154563755    1.02203463847610    2.58651173716923
C         4.93702801812221    0.79373253152279    3.87921083860193
N         4.51871942967989    0.80943820650148    4.96295038722237
C         5.71259957812487   -0.18253388347127    1.68326085788702
C         5.08374581907473   -0.04695166411699    0.50861763893676
S         5.22190014194088   -1.03679758965733   -0.88316934536761
C         6.01741464639950   -2.45311550313913   -0.26573888705725
N         6.16601300510770   -3.51254019335057   -0.97988460534544
C         6.72063130367923   -2.35061437209814    1.02896905679926
C         6.52282183487738   -1.36810182709202    1.92751112001856
C         7.25773447341398   -1.50959287180948    3.23345887696529
H         0.84889929453598    0.52042934953502   -0.30622232556069
H         0.24324134072910    2.19747315742634   -0.79029476379737
H         0.30860320481464    1.65646742233597    0.91212136224001
H         1.74325507719562    3.86328198522719   -0.47808889979940
H         4.77867189307699    1.90447133965290   -0.41614794179456
H         4.03988116866118    2.61815179695785    2.19334910164885
H         5.55034748644075    2.85782607536396    1.38755710289627
H         6.61839163915637    1.27658695919175    2.89725477556448
H         5.74319255893887   -3.52344818141361   -1.91666766225433
H         7.50163497621596   -3.10252635514141    1.08633935470312
H         8.32948762254101   -1.63935593203674    3.03960500462601
H         7.03054623136392   -2.34597357770521    3.90108705091225
H         7.24031889098255   -0.67942302845577    3.94646430749599
