30
 energy: -48.305059163729 gnorm: 0.140191879061 xtb: 6.4.1 (79825abcba525fcdf90b791dcacef51065a7a4e7)
C         1.02565240029240    1.57752171912355   -0.30765940632817
C         2.49308825064800    1.80211669752970   -0.47528142184832
N         3.14484456169819    2.09748342362758   -1.54536460256445
O         3.18329842335159    1.59095694941093    0.66151505422884
C         4.61984887920908    1.54952449985134    0.60715717355051
C         5.22717598216315    2.29107609344122    1.79847911475351
C         5.98332239184113    1.18341571411873    2.56085208171168
C         5.20382206632655    0.84535793775119    3.75947441747704
N         4.68782701873497    0.86816591384831    4.80012276184726
C         5.99286466014781   -0.05758376275541    1.70058056712856
C         5.18752270585586    0.16611133351717    0.65415292872049
S         4.60901496242020   -1.01310616334799   -0.44617757731728
C         5.32229708084567   -2.51098560502502    0.07112870002210
N         5.18704897303113   -3.63390836779878   -0.54142216114457
C         6.36396684743940   -2.33522613602028    1.10327273077518
C         6.54626485518322   -1.36656736313456    2.01995406933484
C         7.46062858751483   -1.36646827846245    3.21559388735814
H         0.81652087524590    0.50507349899093   -0.33018669354925
H         0.58324982076408    2.07613592740756   -1.17444279069918
H         0.74830072373871    2.03153477787237    0.64789761475227
H         2.47860596980668    2.26295997424224   -2.30772040054485
H         4.89748064467566    2.06996775099605   -0.31729823297376
H         4.47666835123670    2.74499472754934    2.45742178378243
H         5.97436588568747    3.04569531448419    1.52064114766371
H         6.90704514011876    1.63250330462052    2.94801808881740
H         4.51937927688105   -3.59554251319921   -1.32193726342265
H         6.86584770066482   -3.28271440317081    1.27359950100729
H         8.03588133064523   -0.44179163359891    3.34647523189995
H         8.18824556603981   -2.18252809079664    3.17693608931824
H         6.88661790366760   -1.76189313925361    4.05940244458806
