30
 energy: -48.310691420462 gnorm: 0.143796203790 xtb: 6.4.1 (79825abcba525fcdf90b791dcacef51065a7a4e7)
C         0.80943013879015    1.95120732777075   -0.01637410129960
C         2.28067128038187    1.99088657729246   -0.27285622281579
N         2.78463253198432    2.59385696421150   -1.29244220453566
O         3.05732184653606    1.28317474478976    0.56930920613819
C         4.48406088060512    1.33589368104891    0.39614719053274
C         5.13222051648728    2.17421286332705    1.49846428204199
C         5.88721039914971    1.19381942140274    2.41971365974691
C         5.25409564358389    1.05375018216232    3.73810116906285
N         4.75599678390825    0.71380307860969    4.73110346333712
C         5.74869051432530   -0.14328507435044    1.73181713034533
C         5.01441217408990   -0.04564998504156    0.61605342422676
S         4.76484513116608   -1.27402401792164   -0.55217850721477
C         5.85301824894189   -2.51179378691884   -0.00097505672098
N         6.08501475729801   -3.59980883401272   -0.64662745617869
C         6.59194278669939   -2.44832095638631    1.27622904739041
C         6.54875126741085   -1.32625420123410    2.01848085036407
C         7.27404643380922   -1.28857625963001    3.33686732922394
H         0.70093795505505    1.36537803669457    0.89982573830247
H         0.21006087046876    1.45540186529650   -0.78486810201579
H         0.35035349094086    2.92518270387718    0.17535911929512
H         2.14683084244951    3.03960032487117   -1.96099629610453
H         4.64193013358846    1.84117630095790   -0.56423040944877
H         4.39163639438764    2.71375156824849    2.10174068097408
H         5.88075366861354    2.91963418776476    1.20016573650202
H         6.93242017519100    1.46551524448512    2.61607760772164
H         5.60160065278980   -3.59487149327435   -1.55368038479391
H         7.07356979052378   -3.38974926190595    1.52194794921347
H         7.74139138004179   -2.27269764357426    3.46401428891495
H         6.48567663458827   -1.31601014372245    4.09488774779384
H         7.99920556219537   -0.51549420746200    3.60953990563806
