30
 energy: -48.310882597182 gnorm: 0.130925848524 xtb: 6.4.1 (79825abcba525fcdf90b791dcacef51065a7a4e7)
C         0.90682388644926    1.50397625595748   -0.57527595862178
C         2.32992857435042    1.93562773497678   -0.43259419899432
N         3.02701032222005    2.74478030449048   -1.15124221896637
O         2.99923890018462    1.33005174934384    0.56669864699816
C         4.42712486167878    1.46636361032043    0.67114710169615
C         4.86377998923158    2.12250603118200    1.98141519035234
C         5.85785911900305    1.13524220964902    2.62716932407623
C         5.55814106468669    0.77957373340314    4.02082225493086
N         5.19036895379447    0.71166738762488    5.12075522643184
C         5.83841058724667   -0.06854592013312    1.71571225064078
C         5.02000849551906    0.09276501659652    0.66794173510518
S         4.60049449216794   -1.05296967215632   -0.53507637975891
C         5.67715443472221   -2.35056010110331   -0.11426458504204
N         5.58728050674300   -3.43338709068618   -0.80265010998357
C         6.49620754583955   -2.32787471229870    1.11452594642830
C         6.59073461770628   -1.29029313881408    1.96677380618928
C         7.49496023695676   -1.48446247667402    3.15433017459815
H         0.83346391675061    0.44103506875723   -0.81851043203555
H         0.55482630562497    2.05239379103179   -1.45333376965101
H         0.40199547957935    1.69565641306810    0.37580134126411
H         2.50704567366619    3.12334204459449   -1.95047340486770
H         4.84943026138275    1.96279684143904   -0.21076594870104
H         4.04602371656120    2.22966399003535    2.70481076621259
H         5.26710405359967    3.12858605026949    1.80800933500622
H         6.84687347747004    1.61017184967039    2.59350303825021
H         5.03871610315261   -3.60556439006534   -1.65464229510921
H         7.12459844873706   -3.20779662165908    1.21195292805667
H         6.94031636266236   -1.64649212907598    4.08663331917710
H         8.01599792181310   -0.55132917253549    3.38811751239212
H         8.10467163492379   -2.39307742458008    3.13124563581386
