30
 energy: -48.308729617472 gnorm: 0.133156649513 xtb: 6.4.1 (79825abcba525fcdf90b791dcacef51065a7a4e7)
C         0.82126215969737    1.59379402837504    0.05472081950862
C         2.21679777025630    2.11179866568363    0.18144720444712
N         2.75836923692647    3.14254381778338   -0.36752509455773
O         3.02711038820390    1.13613143064532    0.63394213292002
C         4.44439224763330    1.34830561822329    0.51293433275586
C         5.14323828537402    2.14508310095997    1.61509258081496
C         5.65838092618076    1.05227751814574    2.57440768511179
C         4.56999553900100    0.72922405076739    3.50695957661482
N         3.78283548761022    0.61689408095938    4.35400213855189
C         5.87625310337613   -0.13948787193670    1.67303938655964
C         5.17240659979138    0.04176474969337    0.54815115200265
S         5.03131230098540   -1.08494398374014   -0.73503712718323
C         6.02460457042985   -2.43181596530043   -0.26671425636143
N         6.26917883134131   -3.52361733804732   -0.90123717262630
C         6.66796772299310   -2.29527597800268    1.05568102478980
C         6.60254848551101   -1.35456636582695    2.01621359138028
C         7.56317535733402   -1.46429566645929    3.16980411911118
H         0.03859936115949    2.32325408273741    0.27769084275843
H         0.63493253449725    0.78773790835541    0.76970641981962
H         0.67638903691825    1.32170101288324   -0.99462097418966
H         2.06841873431568    3.79835331745742   -0.75004949505640
H         4.59225663080729    1.90649278801106   -0.41933257072316
H         4.40577081786401    2.78165742647381    2.11949731515062
H         5.95026688921023    2.78358436143093    1.23304830586491
H         6.59585346204529    1.19888721109979    3.12621539394300
H         5.94756081952721   -3.58164065525079   -1.87573896064653
H         7.24887573040589   -3.19824571915525    1.21637063012974
H         7.92654812633025   -0.46149240924261    3.42557433547277
H         8.24017164009773   -2.31850876103470    3.07562063141515
H         7.02318783563923   -1.68243233782069    4.09646038383809
