30
 energy: -48.308293669632 gnorm: 0.128997337829 xtb: 6.4.1 (79825abcba525fcdf90b791dcacef51065a7a4e7)
C         0.94202897570199    2.10033649674510   -0.52839553400125
C         2.43291952003198    2.01988115983760   -0.47662349493447
N         3.36118192023635    2.51279874340973   -1.21990471981586
O         2.83620433764691    1.41055088679209    0.65446568226799
C         4.22721099709467    1.44707093139059    1.01794251348720
C         4.37282019421398    1.68151235274842    2.52188005447561
C         5.64325799809888    0.88596713712095    2.88654023306859
C         5.37505942077976    0.21257087587036    4.16450983655472
N         5.09300106077774   -0.25439169343889    5.19023353389825
C         5.85165574073739   -0.07936273793509    1.74419770569367
C         4.94639115939667    0.15589939371936    0.78567085256471
S         4.55711656931919   -0.87727867314405   -0.52465762244666
C         5.84290907927994   -2.04442817804386   -0.45742930036473
N         6.01913916455871   -3.01647370516577   -1.28116263190339
C         6.65915145381966   -2.14587313462667    0.76925155387938
C         6.72376911407726   -1.24578499380671    1.76800225666797
C         7.71427189579600   -1.51134293209578    2.86981841128288
H         0.60719532482537    2.30558900417747   -1.54827125822596
H         0.54491060670459    2.85085503913210    0.16056638423948
H         0.50003139977702    1.14135386136125   -0.24355965442321
H         3.11263793430150    3.13551730175996   -1.99636476177173
H         4.66322403812743    2.17341606734171    0.32161374992094
H         3.48722258257403    1.22945368365403    2.98541980808313
H         4.45457061879064    2.69931203012096    2.92479138432132
H         6.54998666278962    1.47998698758990    3.05923779714648
H         5.42374003550206   -3.01478114442687   -2.11899053870830
H         7.21842283039671   -3.04647089814491    0.53522417954941
H         8.34251582323980   -0.71992520184242    3.29647996461808
H         8.22786476833687   -2.43804266453662    2.59719324486377
H         7.04709034583110   -1.83826428570209    3.67346832226545
