30
 energy: -48.309082741467 gnorm: 0.125654056146 xtb: 6.4.1 (79825abcba525fcdf90b791dcacef51065a7a4e7)
C         0.88214068856890    2.12775183158855   -0.08084659216429
C         2.36976385754413    2.17283109407236   -0.21066648617824
N         3.03602679665522    2.94267236498929   -0.99841259692864
O         3.05368753026151    1.29553147559688    0.54820014842351
C         4.48450713491542    1.29429395400072    0.40293330376613
C         5.14431917510116    2.10839473568108    1.51643275572449
C         5.88404255779074    1.12805918787176    2.45004568133955
C         5.16288781305683    1.01446436302110    3.72504823535089
N         4.49935308843537    0.67735448443451    4.61712375639167
C         5.83482676695520   -0.16444921970863    1.67079095629946
C         5.09091305889191   -0.06415010281543    0.56166574346851
S         4.76668596100337   -1.37591228392890   -0.49195151777514
C         5.74326356532461   -2.72518500538470    0.00380995531828
N         5.70479139552783   -3.83927332403524   -0.63790132551204
C         6.47894620496254   -2.51835856646363    1.26764645302048
C         6.55888301776919   -1.38679045746118    1.99221600727947
C         7.42561701605116   -1.28548867494347    3.21864413586505
H         0.44073405708196    2.42401719515553   -1.03571605016796
H         0.53531520849410    2.80478714874810    0.70463725566721
H         0.54065926721511    1.16808080003578    0.31735308636293
H         2.46118428034347    3.58668243481515   -1.55271380288514
H         4.68563326240533    1.72062530544659   -0.58719209184339
H         4.40325580146045    2.74568321162905    2.01462728098008
H         5.78755132038099    2.78351735891805    0.93729655320429
H         6.90475574620370    1.47045276802998    2.66394334308514
H         5.20019412911872   -3.94811356382864   -1.52671739971600
H         6.92163112325433   -3.41142135965576    1.69787735295835
H         8.43923047752174   -0.88811473635031    3.08539889692909
H         7.51184045021503   -2.16280782816310    3.86652620884334
H         7.12879442547515   -0.44034083130300    3.84751890620746
