30
 energy: -48.311121795821 gnorm: 0.134926947902 xtb: 6.4.1 (79825abcba525fcdf90b791dcacef51065a7a4e7)
C         0.83098383719795    1.65256251295572   -0.01343332405763
C         2.27966314215923    1.99379356589990   -0.14303911463834
N         2.82274026422421    3.03014515064585   -0.67983371207636
O         3.08976577514390    1.11248606742276    0.47365819424130
C         4.50211711612479    1.28795973834328    0.26672504655562
C         5.09981508832507    2.19865033231925    1.33975473620287
C         5.82058461135180    1.27075802452552    2.33944898625767
C         5.19851155256552    1.02179869315817    3.64698240655131
N         4.61555558086104    0.88871499623966    4.64306027261461
C         5.91504604451080   -0.01357029979411    1.55089613214329
C         5.16810550559414   -0.04052357088266    0.43959991402983
S         4.87122044025160   -1.31326422296944   -0.66852589289160
C         5.83203982256657   -2.55620653983947    0.07440108476274
N         5.99155537743372   -3.67470409012281   -0.54040307980530
C         6.58020141064337   -2.38481471495673    1.33621235108431
C         6.50283109469038   -1.24811573933237    2.05298729867786
C         7.16476440076731   -1.31619335613704    3.40310779052777
H         0.60543403994014    0.60681886118184   -0.23689733047289
H         0.29411664968539    2.39848792695691   -0.60590147202764
H         0.50761570446548    1.75700034012394    1.02611793567501
H         2.13978228347186    3.61113910483044   -1.17828845902388
H         4.67058048469265    1.69214223415108   -0.73866789738983
H         4.21964344484104    2.65385044618247    1.81049883404828
H         5.91921318100255    2.86368256071418    1.03766906025126
H         6.86931735612929    1.54796907151938    2.50724220254297
H         5.42951701760084   -3.89188296534725   -1.37311239472316
H         7.12277628050091   -3.26656780488590    1.66294405311365
H         6.47480087448208   -1.77676812199284    4.12066877146447
H         7.44658985092499   -0.36602795370265    3.86639455644728
H         8.11170389049797   -1.86414465477633    3.37282680518859
