30
 energy: -48.314499190329 gnorm: 0.114746934413 xtb: 6.4.1 (79825abcba525fcdf90b791dcacef51065a7a4e7)
C         0.97925951099485    1.50530192454655    0.26644207794203
C         2.40171096634762    1.73019868021367   -0.13100141094052
N         2.83784355712120    2.17755441764787   -1.25650885781940
O         3.18345456468981    1.52768108871637    0.94656451430373
C         4.60858821608876    1.62952913590353    0.78233998267266
C         5.16892628542346    2.18299824218228    2.09294523871360
C         5.83985918129745    0.98551258453178    2.79704650496026
C         4.84178195650075    0.45497351860959    3.73564625059688
N         3.91906342544422    0.09323686906916    4.34182871639867
C         5.87009630427359   -0.12052691059993    1.76942781398988
C         5.15016563485764    0.23743179124701    0.69835763492747
S         4.92294174621987   -0.67657552036197   -0.73304456364242
C         5.94197126635851   -2.05350425597569   -0.44035691581981
N         5.98232243680192   -2.91078363721622   -1.39843309796350
C         6.57517648261284   -2.23996356458201    0.88084429439473
C         6.55806043043970   -1.39457548452011    1.92815659990677
C         7.25963907528371   -1.70950543286323    3.22207395635004
H         0.88630153913766    0.69280676141159    0.99142420435890
H         0.31791783192313    1.29446399114032   -0.57843907081599
H         0.60911528918458    2.41915428272674    0.73973707373430
H         2.18725458196979    2.46045604204264   -1.99755094064302
H         4.72288154066965    2.10115806717365   -0.20105289765585
H         4.31503396139309    2.54579697612868    2.67839741462042
H         5.93074479545549    2.94573270701121    1.88605022190542
H         6.81863212445007    1.19930315438974    3.24553063348330
H         5.52299903988522   -2.62097311945387   -2.27106730869668
H         6.97713175059840   -3.23076614634102    1.06891823138454
H         7.82126036128503   -0.87190453307017    3.65344247622073
H         7.95070625923736   -2.52142947328461    2.97696171417703
H         6.47757447078136   -2.14018695055244    3.85512241378306
