30
 energy: -48.309453350081 gnorm: 0.126415532779 xtb: 6.4.1 (79825abcba525fcdf90b791dcacef51065a7a4e7)
C         0.93841465648929    1.79604168157243   -0.18489959703927
C         2.43094965114965    1.85203610607797   -0.21824529950242
N         3.24207132767529    2.22079536376667   -1.14733304737708
O         2.93566412098819    1.45487366152005    0.96531291634908
C         4.36740155647034    1.54041095954505    1.07095349100235
C         4.75808560204099    1.92460091049719    2.49845375323499
C         5.67668725116138    0.75878808356525    2.91908768468339
C         5.02954559021591    0.16420119548387    4.09648880869826
N         4.74331563057799   -0.17631302041445    5.16972808326382
C         5.80327749138119   -0.19875822433840    1.75834748942707
C         5.02163298340206    0.23147425549770    0.75956932435635
S         4.92190508165801   -0.48663283953352   -0.79295406413352
C         5.79168694950661   -1.98061549437977   -0.61542854827826
N         5.94990687522918   -2.74111204745933   -1.64064929628999
C         6.56745744937228   -2.19997660568736    0.62204848843711
C         6.54668817906944   -1.45123940391488    1.74043942297931
C         7.28790086785162   -1.75283057355694    3.01529711063978
H         0.52882475755266    2.55202169846700   -0.85952466887718
H         0.60956291004996    2.03282155466009    0.83069945140131
H         0.64668481369808    0.77646269067376   -0.45228211517773
H         2.83531454518534    2.46907128125550   -2.05582118787204
H         4.69268233606392    2.35932159628088    0.41816244345766
H         3.85520775938440    1.87813254543874    3.11987274584332
H         5.19977815699549    2.92723552827197    2.43086408953904
H         6.65547387273783    1.10663814892889    3.27379598675432
H         5.63348470493268   -2.59056112690868   -2.60691531054106
H         7.13939739459589   -3.11419290636467    0.49665765802860
H         7.90877977430803   -0.87697298509545    3.23991993754578
H         7.87496877470926   -2.62946927375423    2.72593509162397
H         6.69773843056743   -2.07735267195579    3.87799964501210
