30
 energy: -48.310828608356 gnorm: 0.134865848723 xtb: 6.4.1 (79825abcba525fcdf90b791dcacef51065a7a4e7)
C         1.07868761938202    1.80473275087747    0.72623508922278
C         2.39169228321412    1.52425151136931    0.07105797892962
N         2.68763821198563    1.00564912399403   -1.06936886079728
O         3.45164535814148    1.79182264062538    0.85730852394491
C         4.80168424599090    1.62224072022924    0.39149137558044
C         5.70021786660033    2.29898338511836    1.42717938102686
C         5.88816846589737    1.16913165647681    2.46061592256691
C         4.75059505586916    1.13751214639874    3.38987704420424
N         3.93282775363704    1.27597788295024    4.20339037030557
C         5.92865562476659   -0.05777576824114    1.58124298038760
C         5.20907365249881    0.18529506438570    0.47818165130794
S         5.14380294948079   -0.86290193116741   -0.87569246250994
C         5.74885061135260   -2.34060733183453   -0.18989071017106
N         5.81917059653711   -3.38626267176356   -0.93562936486761
C         6.05788708702569   -2.46855858308974    1.24865491161895
C         6.20179037672794   -1.40547247425429    2.06165970838593
C         6.76284998853902   -1.55902459377628    3.44991381138750
H         0.34466399559563    1.49334842574982   -0.02118566272242
H         1.13085938602721    2.88309819203543    0.89960085482595
H         0.97671911335197    1.23805653792987    1.65608535861073
H         1.84596673601255    0.65366420291606   -1.53855800663988
H         4.88996750094893    2.11296064687779   -0.58521655516836
H         5.29858897648505    3.21133882169852    1.88523075413101
H         6.66099145899242    2.49633666119278    0.93432783550733
H         6.77753703216307    1.41139220204431    3.05658091346675
H         5.46310143212784   -3.21273329060622   -1.88408120370512
H         6.44915550960358   -3.44872686628734    1.50323054877439
H         7.78938456334090   -1.17441946850180    3.41278957058895
H         6.84610338207138   -2.58701163063738    3.81486041885835
H         6.29746056266466   -0.84996131320631    4.14165357761440
