30
 energy: -48.315989619632 gnorm: 0.119338905990 xtb: 6.4.1 (79825abcba525fcdf90b791dcacef51065a7a4e7)
C         1.10965281804655    2.00872435088521    0.20182068587566
C         2.42763604016568    1.36812581062956   -0.08880236609664
N         2.72485264417790    0.53579747951090   -1.02474982594884
O         3.42020641923270    1.80376681080510    0.71013800487440
C         4.76290709655206    1.56352710803269    0.25429984434216
C         5.68043257524567    2.30810092481585    1.22473777645098
C         5.92037066141662    1.30728947673425    2.37394951211516
C         4.90551805415422    1.42459688730830    3.42984367002920
N         4.27547812588405    1.69429873605038    4.36794316820316
C         5.80398927225942   -0.02042336201848    1.66411021354868
C         5.17156419910934    0.14462774654940    0.49516940433938
S         4.81390851067447   -1.06957799749816   -0.65970684592249
C         5.63697972921818   -2.45133012580253   -0.00142513717378
N         5.76760291817410   -3.58880382759418   -0.58756275133802
C         6.25248113723359   -2.32830550257285    1.33547858169313
C         6.34616630097226   -1.27488206152365    2.16816051815870
C         6.97142130617792   -1.38385515352586    3.53300360751682
H         0.40635149698718    1.96185305178296   -0.63337928524759
H         1.28611716653875    2.99931178602483    0.62989366303278
H         0.63218345122396    1.46748260357688    1.02353925413119
H         1.93522747055942    0.15724976828886   -1.55919947600755
H         4.85251080159803    1.83277821266116   -0.80496093200512
H         5.35980511676223    3.29492499240472    1.58094777617614
H         6.62338865725072    2.35298646970482    0.66459852865410
H         6.90209348909228    1.37139120313432    2.86072683535515
H         5.21284368063338   -3.68596472812718   -1.44736536548924
H         6.59780887377299   -3.30063662629952    1.67304421087596
H         6.83412069725825   -2.37092182733296    3.99117439046866
H         6.39122076093363   -0.73056258042287    4.19137330256775
H         7.94933009292459   -0.89238104334551    3.52991033091760
