30
 energy: -48.307055347159 gnorm: 0.129656626829 xtb: 6.4.1 (79825abcba525fcdf90b791dcacef51065a7a4e7)
C         1.16989430904791    1.52650028698774    0.64421208431720
C         2.47627319002105    1.35411508281636   -0.05975210663607
N         2.80945312878862    1.10627750152081   -1.27822388292166
O         3.51240467740078    1.70149877378081    0.72703939448714
C         4.85099804824205    1.55175181531174    0.22296371735820
C         5.81160793429767    2.27235021802625    1.16951511153771
C         6.01470018300221    1.32284865338929    2.36829856506085
C         4.86668395660688    1.48886691205336    3.27001691481899
N         3.86392973781287    1.82818830785608    3.74862429721108
C         5.97873151788806    0.00436986483782    1.63307223678763
C         5.25118098235361    0.14046451405935    0.51692959433899
S         4.79927009270618   -1.04773569835401   -0.63194338461659
C         5.56780567711633   -2.42357912382828    0.10046899640280
N         5.60249802809970   -3.51378648478834   -0.58122777228096
C         6.16067035412137   -2.39530783240732    1.45287454924679
C         6.25512623529285   -1.29723386422098    2.22562850855657
C         6.91665649298877   -1.32039999542626    3.57746305626260
H         0.53542584135442    0.72685085602067    0.25382867017202
H         0.76662767722174    2.54162113962246    0.59366226322491
H         1.40793468570505    1.32412295970714    1.69231571827261
H         2.12207514386630    0.69155946696827   -1.91694382964515
H         4.91594136435638    1.77776092516985   -0.84813880766658
H         5.33808577185572    3.23215920566491    1.41045647729896
H         6.78649574298962    2.29660580496995    0.66558824448791
H         6.91857530556936    1.50396796322156    2.96415630767049
H         5.06155828038400   -3.43414551121179   -1.45157258414469
H         6.50124652851274   -3.38683301290382    1.73485909631099
H         6.82720670858797   -2.32217811064237    4.01508376544334
H         6.31504109618674   -0.65772257395427    4.20658312537136
H         7.96384406351407   -1.00591989996076    3.52885833680932
