30
 energy: -48.298401683781 gnorm: 0.155822143851 xtb: 6.4.1 (79825abcba525fcdf90b791dcacef51065a7a4e7)
C         0.84188742043827    1.68084447115857   -0.10825140172104
C         2.29745164882745    1.95498790451677   -0.30340823967065
N         2.86873095039107    2.38692601212368   -1.37306951873398
O         3.05794858603785    1.39426253663765    0.65602714090724
C         4.49220729092464    1.48056791873008    0.59436619762006
C         4.98432486754534    2.23196588943162    1.83178868853918
C         5.82606618343865    1.11707002372187    2.48628112033336
C         5.42693827404913    0.92255905897627    3.88680312127550
N         5.04413318453765    0.84180821261106    4.98072254665348
C         5.87225239489891   -0.14891837616725    1.66446707815679
C         4.99271167277639    0.07323460667812    0.67923490750282
S         4.87964135308375   -0.96228999189729   -0.68122695002811
C         5.69414050933855   -2.40697477122120   -0.16209580720487
N         5.95586254159921   -3.40926129891851   -0.92458485197087
C         6.38777888437188   -2.44691389717774    1.14119214218016
C         6.47908691882393   -1.42616442905161    2.01387231657936
C         7.17037571274353   -1.61509690306575    3.33751886077229
H         0.74378777050960    0.59467899383304   -0.17903046604788
H         0.18727978994630    2.22877894632593   -0.79155680245346
H         0.54133309887290    1.88956987855508    0.92239976991559
H         2.22880315025956    2.79084878709616   -2.06573214797987
H         4.68970066605443    2.07174006378949   -0.30789224776170
H         4.15559859381817    2.54615008831283    2.47832589820534
H         5.72097812074489    2.97761980491351    1.50578390974978
H         6.87055837342826    1.44557029066503    2.56351208558726
H         5.37508668182187   -3.31920050513353   -1.76782091573395
H         6.84385849351274   -3.40132198986041    1.38558178558410
H         6.62079805471669   -2.29808651533540    3.99673216508385
H         7.43341725964695   -0.72174465389438    3.91163162345188
H         8.21232993147487   -1.94432759907498    3.27587011772370
