30
 energy: -48.308969087837 gnorm: 0.132269482907 xtb: 6.4.1 (79825abcba525fcdf90b791dcacef51065a7a4e7)
C         0.87474034256358    1.44946800013383   -0.58965285009220
C         2.28255188911448    1.94035285971117   -0.49474898809072
N         2.96128034309376    2.60857963943180   -1.36072039665398
O         2.91941135661537    1.26723535152649    0.48229124740018
C         4.35539072112006    1.30369771734617    0.55287802760356
C         4.83149815098829    2.14472382659781    1.73777880278246
C         5.89179030442184    1.31075133840584    2.48621183938991
C         5.52748749965449    1.09670706225981    3.89336072070349
N         5.27437868999775    1.22139626519834    5.02035170048569
C         5.82982776938010   -0.02432539590848    1.78338264891880
C         4.97841272753129   -0.04217748821007    0.74974828798327
S         4.62931431078096   -1.26939210142846   -0.39394186326148
C         5.72109756164183   -2.54011108699791    0.06790520643751
N         5.81376174340728   -3.64816561459702   -0.57869727090695
C         6.57435974111155   -2.29427365019029    1.24807316381039
C         6.50372606335530   -1.27107120932753    2.11979843949997
C         7.46178365066332   -1.28278003873265    3.28066207887812
H         0.73423701403326    0.89117886843670   -1.51860964253261
H         0.26607669788486    2.35043224426280   -0.70559079915109
H         0.51859557717853    0.93837492129691    0.30928307933672
H         2.47422280600620    3.10942867508241   -2.11196464151368
H         4.60474264061971    1.76223743873239   -0.41155101753635
H         3.98565848484717    2.26976736140617    2.42511327878602
H         5.11029405728335    3.17733084064217    1.49093371511380
H         6.90183940567034    1.72652371684986    2.59472512030818
H         5.29896629176213   -3.77413772675076   -1.45936479038571
H         7.28071096394049   -3.10834335827608    1.37841183319907
H         7.02098000327458   -1.19484600419067    4.28117811559856
H         8.19699701340459   -0.50642431314385    3.04912882832162
H         8.05495588514340   -2.20255883505154    3.28462076614431
