30
 energy: -48.313139808634 gnorm: 0.129982610412 xtb: 6.4.1 (79825abcba525fcdf90b791dcacef51065a7a4e7)
C         0.86060500771982    1.89565230370058    0.53049174426956
C         2.26827315308971    1.88375671408412    0.03025489251071
N         2.62458105368767    2.44357499576683   -1.07281082584910
O         3.20109850642235    1.23342488764026    0.75149696623341
C         4.53595228618116    1.32727361296931    0.22451836400466
C         5.31154264989264    2.15707566689278    1.24817899475281
C         5.77587502846607    1.19769918269790    2.36346983131389
C         4.77531721012464    1.05662111616033    3.43004394239803
N         3.97807432364039    1.06515192708745    4.27505936533365
C         5.81463851403985   -0.10173870019597    1.59522742260461
C         5.27189629504250    0.03382774455744    0.37839606497702
S         5.08055274922575   -1.29831531479071   -0.68213909712605
C         6.02403371257614   -2.61313808457893   -0.04881081210574
N         6.25448419536914   -3.73030273684276   -0.64320279939012
C         6.60614253740718   -2.37812329318971    1.28805340268237
C         6.53520546476773   -1.27867626084116    2.06137169717235
C         7.09119982283528   -1.24228056270292    3.45964249403793
H         0.76941214058032    2.69681589413884    1.26819725529028
H         0.66413977868230    0.91797925011288    0.97905213096944
H         0.08405352361134    2.11450872507409   -0.20789209174839
H         1.93206105220065    3.06482456983330   -1.50513908899310
H         4.47898581521939    1.72095379382921   -0.79740584959774
H         4.58574374639803    2.88260910797066    1.63589854780252
H         6.22821641219988    2.62046701546355    0.86099101908602
H         6.70918424607916    1.57503223975846    2.80095647017968
H         5.67685153221817   -3.89380944939998   -1.47750768674263
H         7.10123238117871   -3.27671728780770    1.64308084158838
H         6.18506912055042   -1.35867042529039    4.06664586978586
H         7.50491334789248   -0.25521400767254    3.68639179006821
H         7.84532532894944   -2.03155426390161    3.53840610603934
