30
 energy: -48.316976696728 gnorm: 0.119178852236 xtb: 6.4.1 (79825abcba525fcdf90b791dcacef51065a7a4e7)
C         0.86542528897260    1.55499603014393    0.65417030712806
C         2.23591938287949    2.00465464606124    0.26499028624396
N         2.61840699879839    3.10090128028909   -0.29093448155801
O         3.12611622083718    1.06653227010278    0.64017124357920
C         4.51550631075437    1.30242773632971    0.35329643492057
C         5.14464998490949    2.16089199723468    1.45111713906009
C         5.69465648295543    1.09510079515843    2.42140751928954
C         4.55204991009949    0.72227254513652    3.26642151723639
N         3.66268107611944    0.44627172411229    3.96109172822044
C         5.84930461248898   -0.16905667685287    1.61009519349693
C         5.22967270120525   -0.00975482448893    0.43353020998196
S         5.18210793577111   -1.04588746234924   -0.93033161547798
C         6.12527923106048   -2.34816378506754   -0.27114707383236
N         6.43771027413314   -3.37591929652208   -0.97865791244161
C         6.69226720565606   -2.29421612979126    1.09153515671331
C         6.61387142446032   -1.33474821118242    2.03233931410385
C         7.15503779714406   -1.39703246776921    3.43550545716874
H         0.72132841112674    0.47375749836996    0.58673155196033
H         0.08597793827203    2.07628460681884    0.09170283822241
H         0.68288376818128    1.81259271778714    1.70129187130501
H         1.95646812776349    3.71296288417562   -0.78048553761904
H         4.69443797628279    1.76945817474520   -0.62262589836408
H         4.44197300012649    2.72946486153165    2.07279167406662
H         5.96495280320775    2.80947201799211    1.11737457369693
H         6.58420693486175    1.36838458651875    3.00352165494204
H         6.05110807557391   -3.37762056621386   -1.93102046488144
H         7.29019680635440   -3.16169383828193    1.35343633621303
H         7.35007651085861   -2.44575053245450    3.69089312808784
H         6.43040147706760   -0.96342713176984    4.13103627674865
H         8.07308723462780   -0.80470797459833    3.50030428837433
