30
 energy: -48.309063251498 gnorm: 0.122983209050 xtb: 6.4.1 (79825abcba525fcdf90b791dcacef51065a7a4e7)
C         0.82682263515343    1.78387560358732    0.05660907818397
C         2.27319522704871    2.03533863882768   -0.22030370410514
N         2.78800633735350    2.87452775131093   -1.04966307242663
O         3.04749024261730    1.13470812596216    0.41421710899629
C         4.47392791705435    1.31571702254098    0.38489148187735
C         5.09077657159409    2.11453196075970    1.53353650026373
C         5.84528733133404    1.10028326289253    2.41778450933273
C         5.14610820677218    1.18536698838981    3.70716754553347
N         4.59557984386035    1.30155164505731    4.72360234754015
C         5.75931682446651   -0.22430590783650    1.69784670657498
C         5.08010018921220   -0.04104382073056    0.55823899781204
S         4.81879407984194   -1.30129016944811   -0.57288902409216
C         5.93901146855648   -2.52283098429398   -0.05042272804368
N         6.10725010271241   -3.59417299624543   -0.74207886022274
C         6.65500896326041   -2.38326915462382    1.23377300872739
C         6.49674183905089   -1.40022967018792    2.13954448352340
C         7.30433191791684   -1.44015678676638    3.40911910185073
H         0.61370837481616    0.74166085885196    0.30712733407789
H         0.30565505395399    2.03076351989675   -0.87241208189066
H         0.36439308611270    2.41361403912483    0.82193870997755
H         2.14765728045512    3.46598675164041   -1.59056236900535
H         4.77710357366959    1.63582217280830   -0.61918799229672
H         4.31251274296605    2.62274819153198    2.11622934287780
H         5.61779808623863    2.98562711914019    1.12319712494352
H         6.91454510098664    1.32930471777572    2.51306251739071
H         5.48969312053555   -3.76995198740057   -1.54468941831462
H         7.05731186159964   -3.35816527703038    1.49137647708032
H         6.99265672677383   -2.33389748317862    3.96333809395935
H         7.27108304996889   -0.46726153383909    3.90836237881692
H         8.33489338621559   -1.66873094190740    3.12005356413594
