30
 energy: -48.303934045496 gnorm: 0.142462873112 xtb: 6.4.1 (79825abcba525fcdf90b791dcacef51065a7a4e7)
C         1.08657787235781    1.44039257689603   -0.97485784166551
C         2.54311909034586    1.73994830010779   -0.83111476855903
N         3.42262162933982    2.17866739205347   -1.66244301271870
O         2.86376323110107    1.40654497539291    0.43352522441332
C         4.25844005506240    1.48735263053456    0.77513219992290
C         4.70225226432785    2.06941425807492    2.11760302895292
C         5.97637451161517    1.27619814253563    2.47439728263849
C         6.20530541888395    1.24635311987516    3.92536220677023
N         6.11705920531753    1.26974102781195    5.08354426055607
C         5.67264755116979   -0.02642258638176    1.77356420548026
C         4.81808440860711    0.10010025513888    0.75016801344043
S         4.43533282352933   -1.13856925333762   -0.37016738543225
C         5.28864249828814   -2.50632063424638    0.27878465484230
N         5.27942569823659   -3.67131611127793   -0.26634536780403
C         6.15171418516914   -2.41292131272424    1.47363713236404
C         6.40884625870740   -1.24327380462207    2.08816530803912
C         7.51678113795572   -1.15737783814055    3.10340804514120
H         0.61555980304661    1.99825376774369   -1.78807462016575
H         0.55884008249668    1.50487519875465   -0.01935565790156
H         0.91967787727367    0.40371210354246   -1.28076472050476
H         3.02361968130700    2.50396829557176   -2.54980961143679
H         4.68207605432639    2.07839570468290   -0.04569604060796
H         3.77791380129083    1.92417780776690    2.69032813860820
H         4.87944876867918    3.15229937722589    2.08763519577301
H         6.87536411559571    1.81511253262907    2.14846803629405
H         4.64492739450679   -3.83890072725354   -1.05741166552175
H         6.72862886067466   -3.29958075812582    1.71783807902272
H         8.27272858496308   -1.91572929496268    2.86567063938404
H         7.16973431990274   -1.56947352358291    4.05556883271497
H         7.99433623825197   -0.17491561548832    3.17101774233083
