30
 energy: -48.305563195811 gnorm: 0.136668693112 xtb: 6.4.1 (79825abcba525fcdf90b791dcacef51065a7a4e7)
C         0.91841598489029    1.58792623459247    0.29638498718556
C         2.33708868317915    1.98452660725744    0.04741921447419
N         2.84380692238561    3.05068259994521   -0.46605312723360
O         3.18627897366550    0.95833125121336    0.24511524268833
C         4.58777726010701    1.27833183160876    0.20327142165143
C         5.19271179647224    2.23650464599878    1.22989311783442
C         5.69874074558579    1.21125344703941    2.26559396755609
C         4.73859635318893    0.94021661642914    3.34413985704190
N         3.87123655041496    1.02062251030708    4.11286737489581
C         5.94778406127883   -0.09666442301783    1.55315704016093
C         5.29073803160002   -0.02933132183863    0.38808921667470
S         5.04239988912752   -1.35749119746146   -0.66560527415124
C         5.81437125243446   -2.69212792230926    0.13615851407539
N         5.71042404853125   -3.89975874402800   -0.29429362207925
C         6.49216212682105   -2.39959359381928    1.41534264115552
C         6.64424139335497   -1.25210040238872    2.10234235941038
C         7.39393489885928   -0.94821206341688    3.37168367714098
H         0.87912508988732    0.76249970923308    1.01158841168985
H         0.49860873022746    1.16623886596619   -0.62099783444640
H         0.24081254162336    2.38828421791654    0.60690343436394
H         2.16133207390276    3.76397248201330   -0.74513795419524
H         4.82872557958270    1.65612266843336   -0.79761639803071
H         4.44804289292892    2.93365137992916    1.63358107560599
H         6.05530794149362    2.71571888401284    0.74904127326927
H         6.55466067193067    1.62300443993440    2.81577865050838
H         5.30538034016018   -3.87065303505586   -1.23851343717837
H         7.14122839790378   -3.23869127142285    1.64611912262239
H         6.79543787356511   -0.39754516685487    4.10764554749475
H         8.30850802813896   -0.37705076339371    3.18673687955186
H         7.86656898806332   -1.79824056481979    3.87361054340627
