30
 energy: -48.309285008446 gnorm: 0.124034984741 xtb: 6.4.1 (79825abcba525fcdf90b791dcacef51065a7a4e7)
C         1.09143813372909    1.44558129804463   -0.02104354780351
C         2.51745584520062    1.64962946900786   -0.41695498659577
N         3.12967520222629    1.69156969433480   -1.54856194043182
O         3.29570750445077    1.64084924673695    0.68192264187478
C         4.73107058267672    1.63276588262105    0.59238930495220
C         5.36553290650885    2.34298948359981    1.78864723701248
C         5.95952095454813    1.17960388653540    2.60937479253942
C         5.23464843651201    0.98348995260690    3.87218856602014
N         4.51530065976565    0.62496424210905    4.71106771730822
C         5.85645686189968   -0.01553295985026    1.69217044156092
C         5.16474136677177    0.20114829411116    0.56602427836692
S         4.76138050085279   -0.84902213479205   -0.72641321011279
C         5.31454416231450   -2.32025093738383    0.01488018883789
N         5.18699459939958   -3.46128727141955   -0.56497621000208
C         6.01161214715579   -2.32813947810548    1.31692581205934
C         6.43808710699211   -1.29663579613970    2.06922666913038
C         7.37363568716316   -1.36110751056468    3.24660005759995
H         0.82199718259182    0.46136607071992   -0.41233707127833
H         0.39072936626344    2.12127572893087   -0.51913376954957
H         0.98693491993745    1.45054734398342    1.06762327467006
H         2.48783302342288    1.75347668567651   -2.34646472742349
H         5.09905472515317    2.07196253043270   -0.34262535223377
H         4.59823483553008    2.92047511507879    2.31899931532996
H         6.12702205957096    3.02409270053659    1.38718793478588
H         7.02574588941177    1.33165350784003    2.82123863217553
H         4.62477259330303   -3.46063204964522   -1.42542062662048
H         6.35198650618321   -3.35008163372901    1.45260645652312
H         8.39163366906344   -0.99838527879588    3.05902264769411
H         7.60870057295356   -2.36861747641855    3.60232850096494
H         6.95411052302173   -0.70574681478243    4.01625127811475
