30
 energy: -48.308155533081 gnorm: 0.139788814286 xtb: 6.4.1 (79825abcba525fcdf90b791dcacef51065a7a4e7)
C         0.82001672526159    1.70025588265681    0.20874976545058
C         2.26485047540066    2.05599146399688    0.07527449067934
N         2.67655274889402    3.13463083500089   -0.49406209696147
O         3.13817807939078    1.17170752032789    0.59356548274649
C         4.54883246060187    1.41115649213000    0.44842056166025
C         5.09637329790613    2.25714107794021    1.59842145097368
C         5.64871467145241    1.18022521484086    2.55500530500988
C         4.70096749391685    0.45293893068266    3.41024168828758
N         3.95570687062660   -0.12622235132592    4.08764768326670
C         5.97880005931484    0.02634468402587    1.63857681823832
C         5.24031188082408    0.08654460579890    0.52294376307863
S         5.00682593198303   -1.10383955473414   -0.68718935662721
C         5.97734574629509   -2.45220244990367   -0.17725922185717
N         6.12882033317492   -3.59776130790436   -0.74225166890755
C         6.71929107935764   -2.30128144618098    1.09082142627416
C         6.65208173402575   -1.23622215582276    1.91116807697649
C         7.37156483772326   -1.24898652288876    3.23321071321479
H         0.43572880973913    1.04316923997120   -0.57543681941662
H         0.20003251471903    2.58899879374918    0.35505500286741
H         0.69573030769678    0.98962269861918    1.03075608790902
H         2.00456726426930    3.78153808554620   -0.92113261759923
H         4.64064659215111    1.96930860300868   -0.49104457811161
H         4.46247049790246    3.03056420730444    2.04952361885808
H         6.01678750063913    2.76453085206724    1.28167207208237
H         6.49187820297897    1.48993315639898    3.18587545382806
H         5.61006394488323   -3.90951411199319   -1.57301070420863
H         7.22924209972032   -3.22797132130880    1.33541379405317
H         8.29738147341743   -0.66517682580641    3.16178007428693
H         7.67824976911693   -2.28013490743401    3.43208723615035
H         6.73565529695962   -0.80375593076249    4.00473565520171
