30
 energy: -48.314723336928 gnorm: 0.122943894649 xtb: 6.4.1 (79825abcba525fcdf90b791dcacef51065a7a4e7)
C         1.08301482692174    1.73555948178207    0.56792646056589
C         2.46952670513260    2.05508142599915    0.11251612447895
N         2.81511283370595    3.11449620063085   -0.53193432610137
O         3.34832925573317    1.07746194698035    0.40449387744627
C         4.74407944116160    1.25940465661608    0.10932106948869
C         5.45583106284038    2.19889174300684    1.08336762187666
C         5.92320234017177    1.27192916880574    2.22450129196667
C         4.96516395070433    1.24977200817298    3.33817583052509
N         4.14141358253601    1.28233480730052    4.15676922030581
C         5.96997326076906   -0.09746533773204    1.58982869960267
C         5.27622197680617   -0.09814341036376    0.44425680286822
S         4.88491198234464   -1.30340974323155   -0.70906974696014
C         5.71781997843091   -2.66622066564421   -0.02421151110431
N         5.83710825137282   -3.80548247203574   -0.60929194157842
C         6.29213886538063   -2.50677307417500    1.32709271636376
C         6.42391217341346   -1.39431762410675    2.07336076942619
C         6.88853098859629   -1.44130782887335    3.50428254647101
H         0.46761568089371    1.33463976848169   -0.24135466245346
H         0.53644575713882    2.63168118900128    0.87432121757868
H         1.19859235525052    0.96405429819022    1.33445279394984
H         2.06363024995419    3.80273799138017   -0.65042432172337
H         4.82328695759522    1.55393697359476   -0.94402375632205
H         4.86998086498372    3.07003161636084    1.40180785357822
H         6.27758153987914    2.65920933755012    0.51965602797142
H         6.81495926507900    1.59094620960431    2.77933344055227
H         5.33320538151870   -3.98526464501608   -1.48691309084805
H         6.55151736641826   -3.41964567720513    1.85436505931792
H         7.67729749098728   -0.74332430564205    3.81045080711229
H         7.34673232158945   -2.40213286122378    3.75675305075524
H         5.98899977206084   -1.34596186764700    4.12041138241935
