30
 energy: -48.314307076686 gnorm: 0.122607245891 xtb: 6.4.1 (79825abcba525fcdf90b791dcacef51065a7a4e7)
C         0.88719020643133    1.75090378405965    0.77627735403944
C         2.27141623997510    2.07745353568460    0.31890270495872
N         2.76957554238734    3.11594974281948   -0.25596140491204
O         3.11292356994113    1.09141863303871    0.68343711826892
C         4.50508015994355    1.25665764645693    0.36258708085205
C         5.31511027882564    2.10944304234097    1.33962404434404
C         5.61513506361352    1.04052470047736    2.41073569255019
C         4.41759106269611    0.86059973271475    3.24266999930313
N         3.51157695321990    0.74468147709797    3.96059858821939
C         5.80778946850041   -0.23935074294218    1.63289189960471
C         5.19366239031482   -0.06833011246263    0.45508638324943
S         5.04432500560612   -1.23772425088917   -0.78836366805846
C         6.31475352714195   -2.34903672318974   -0.37482292733227
N         6.70381986320797   -3.23779682178281   -1.21933403481198
C         6.78877321399144   -2.31049511820519    1.02342900451381
C         6.52713042190457   -1.44511355644270    2.02067263427708
C         6.98914895801963   -1.54816100993042    3.44949582240271
H         0.99132441594945    0.85273422588641    1.39014718569607
H         0.34312343102280    1.34476166139167   -0.08086296521929
H         0.46134147164371    2.63023451237058    1.26777644457957
H         2.08933356564815    3.82131262459050   -0.55956768124198
H         4.53339035756274    1.67778492929084   -0.64954370023868
H         4.70234003641918    2.90115599698006    1.78819121015056
H         6.14759685373940    2.52807354708174    0.75940730763111
H         6.44982186919343    1.36882689373688    3.04347300266543
H         6.20866558173749   -3.07170439730426   -2.10459904241687
H         7.40371334411079   -3.14530695629733    1.34524796662993
H         7.87898854102748   -0.92063617852037    3.58167239569088
H         7.17973938942626   -2.60392031905037    3.66379019652534
H         6.28561653874389   -1.06993056508205    4.13811744555683
