30
 energy: -48.309284689779 gnorm: 0.139401696168 xtb: 6.4.1 (79825abcba525fcdf90b791dcacef51065a7a4e7)
C         0.93085104925234    1.29948541137208   -0.28905742499930
C         2.33999578122252    1.77012707758000   -0.44626927489718
N         2.85111820484349    2.62151456824005   -1.26541457039132
O         3.15319719198548    1.34025320893320    0.53719230210695
C         4.58382948893892    1.45953277664515    0.45109780851749
C         5.16176241490931    2.26448546248864    1.61558810180523
C         5.94479494419990    1.28102602321251    2.50976316184512
C         5.10840199252760    1.09893686391317    3.70386938867285
N         4.40570210443466    0.94036137437324    4.61534442710959
C         5.89970555632663   -0.00038820211127    1.71215276367418
C         5.14261402375480    0.08088377962524    0.61041177165540
S         4.73188998472750   -1.20815352356686   -0.44108283492001
C         5.52454904741545   -2.63170605870916    0.16324303690383
N         5.62659345246579   -3.78088643261809   -0.40547265253084
C         6.40825689138066   -2.32525192052241    1.30623686032590
C         6.66062374773779   -1.20612517507361    2.01029888532694
C         7.57241864054341   -1.12667365879652    3.20526044735210
H         0.19573872322435    1.81035135160608   -0.91596612423868
H         0.66330713980706    1.29506024140731    0.77115495030938
H         1.04596835082935    0.24286619664446   -0.54682645458712
H         2.18096860634646    3.15209895065071   -1.83270853419792
H         4.80161069120636    1.87768100159706   -0.53899399351832
H         4.37763000401314    2.72010583470110    2.23288520174569
H         5.76419890388806    3.14118387788850    1.34465080477695
H         6.97462853164683    1.58944215220783    2.73149084384258
H         5.09456994703514   -3.79010503024024   -1.28486141382380
H         6.87396895110785   -3.23490876593019    1.67266053288515
H         7.26917218165827   -0.32604093629730    3.89089983598222
H         8.55071084582904   -0.89035544212582    2.77634020528408
H         7.64480095078437   -2.04840889362850    3.79094544548141
