30
 energy: -48.313705679749 gnorm: 0.122917065970 xtb: 6.4.1 (79825abcba525fcdf90b791dcacef51065a7a4e7)
C         0.84770191652782    1.53686100467661   -0.17384463426100
C         2.26894497559883    1.98909105026488   -0.08744917068862
N         2.74371521076200    3.06699752225358   -0.60688797388268
O         3.07294703936675    1.06424389579655    0.47069344436953
C         4.46169717079116    1.42932849328339    0.55091167714359
C         4.84279434955633    2.12194925894968    1.85974106188745
C         5.75693222606997    1.10207361752593    2.56973195532035
C         5.11755390796588    0.59327837500762    3.79076516407787
N         4.46905574000062    0.20413599364066    4.67265994562315
C         5.82014136026012   -0.11722185509821    1.68115950673368
C         5.15300528827285    0.10257058961099    0.54087590460466
S         5.17134048018124   -0.90556967964786   -0.84450106458683
C         5.80300010278859   -2.35479539737442   -0.12285646308289
N         5.74372615654975   -3.42704017432903   -0.83084225804677
C         6.61190214410975   -2.33032784049693    1.11260597137646
C         6.58320253352402   -1.31683334930305    1.99795467003590
C         7.38442373879631   -1.43327868345100    3.26685209687512
H         0.14902295458823    2.36121003911256   -0.01048908153671
H         0.70773297448057    0.80164412263528    0.62334696041487
H         0.65767095202364    1.01996277180107   -1.11874964547323
H         1.99149836675717    3.59276044376400   -1.06534831377365
H         4.69486264528304    2.05865303537940   -0.31635002127424
H         3.93202784729537    2.29704736561937    2.44570548274788
H         5.43455178958326    3.01896089308586    1.63584350128815
H         6.76490436104465    1.43884908547420    2.84435052929620
H         5.26282716247160   -3.35600213432860   -1.73646267678338
H         7.35818286049750   -3.09618991944871    1.30008925731370
H         8.22655141600530   -0.73050343622145    3.26753861203385
H         7.92243751253362   -2.38519925500413    3.30238958245610
H         6.75854890779733   -1.09813361397834    4.09981094619756
