30
 energy: -48.312233890065 gnorm: 0.122046031488 xtb: 6.4.1 (79825abcba525fcdf90b791dcacef51065a7a4e7)
C         1.17960239853172    1.65477995903206    1.10381309259870
C         2.39260092821748    2.00371435297858    0.30457134062556
N         2.67300054356212    3.07360054536051   -0.35408289276881
O         3.33047736882423    1.05707254536655    0.49832847188583
C         4.64460696960928    1.22549729232017   -0.06117591196399
C         5.45859354590419    2.16903073800204    0.82491857741383
C         5.66099393747238    1.31413914610151    2.09301790245202
C         4.45861163840315    1.19899072873751    2.92944899309502
N         3.67979538430909    0.95460940739286    3.75615515659904
C         5.77681264716635   -0.06113905214348    1.48029143065950
C         5.27221683252314   -0.09870695848914    0.24029237544539
S         5.13642370011169   -1.43665171456680   -0.82150627542823
C         6.09771431192553   -2.62467510918911    0.00586349439747
N         6.47300304853106   -3.72612038717369   -0.54226312184279
C         6.51627545500379   -2.33662730199193    1.39263081223431
C         6.24744835933900   -1.26194434720277    2.15723892888130
C         6.63492603158158   -1.20699963707809    3.61066857140729
H         0.42982510948543    2.43914213418548    1.23419197753401
H         1.68849814340614    1.46480172333277    2.05280360783568
H         0.61481066386025    0.74299442751754    0.88980731855193
H         2.03119125396683    3.87171791126027   -0.41351536427558
H         4.58482459530614    1.46525994818324   -1.12958515268106
H         4.83722572214558    3.04636024270972    1.04333158429632
H         6.39947671030000    2.50246998250132    0.36830714773216
H         6.53049515840934    1.62839748862966    2.68466832010808
H         6.14945806099004   -3.83833516446683   -1.51137873403645
H         7.01726150130619   -3.17085155060476    1.87399604528882
H         5.69651705207631   -1.19289511555379    4.17834998942398
H         7.17651227806215   -0.30484145812535    3.91011716221430
H         7.34572717554817   -2.01082025192784    3.82629814637447
