30
 energy: -48.307731151895 gnorm: 0.124146281808 xtb: 6.4.1 (79825abcba525fcdf90b791dcacef51065a7a4e7)
C         0.89581550071001    1.49209847928995    0.15016312807643
C         2.31281771918152    1.46469730036889   -0.32234287679632
N         2.73443818954008    1.79346410531561   -1.49334859342501
O         3.16028093324659    1.35812236441992    0.71868193711337
C         4.57153444069932    1.47758384951454    0.46879953046516
C         5.33781557948459    2.33096037711162    1.48001403089575
C         5.87595141896076    1.29035242184149    2.48372040052197
C         5.10711074400243    1.16956754300124    3.72987228255919
N         4.50434513062723    1.28201384032427    4.71665979386915
C         5.91459143983690    0.00378212046801    1.69411167863614
C         5.18654339367167    0.11795106268456    0.57583721774507
S         4.85418486568345   -1.07346030557072   -0.60992386117330
C         5.73011735749399   -2.45185193457386   -0.01595507644663
N         5.81286778355855   -3.52306412079502   -0.72314887663559
C         6.52850006097878   -2.27651160831937    1.21413827041907
C         6.60081916251067   -1.22894361282743    2.05628348631761
C         7.16683188596244   -1.37384109471782    3.44345692776566
H         0.34590094157108    0.68751194208235   -0.34443078955481
H         0.53291639137624    2.49648532268851   -0.08470047983124
H         0.92240833102819    1.38157390338851    1.23792145272880
H         2.04225682148664    1.86451845499044   -2.24719138127438
H         4.48104406702461    1.93664250298823   -0.52298426081419
H         4.76962145718284    3.17060717883508    1.89912977073907
H         6.25906227471931    2.73566289411371    1.04131448600363
H         6.83853036327990    1.72751683572314    2.77896613659093
H         5.32679463352321   -3.40673843434731   -1.62129131221754
H         6.88324799790217   -3.24510795239231    1.55267148659814
H         6.27259862584906   -1.60007189410927    4.03695425931428
H         7.55079216330392   -0.42493954254223    3.82950732042348
H         7.76251047004258   -2.29016987189443    3.50151382332822
