30
 energy: -48.312225311601 gnorm: 0.134462083735 xtb: 6.4.1 (79825abcba525fcdf90b791dcacef51065a7a4e7)
C         1.08103698860757    2.20831573894051    0.19039671211883
C         2.54239653403236    2.40241791112976   -0.05180292288780
N         3.20532793649400    3.35641232878652   -0.60634997089730
O         3.23876529023364    1.35926784406832    0.43829224390470
C         4.67325538552665    1.34749755363452    0.33607505874342
C         5.25838117502410    2.07240870399521    1.54856203880058
C         6.00301336335684    1.02599058426487    2.40320441312864
C         5.28356996949391    0.96098195575294    3.68256931283413
N         4.50484976993132    0.86953241850881    4.53986271115520
C         5.86140010994272   -0.24677538711591    1.60304781307022
C         5.21795269326417   -0.04152850353835    0.44655509635451
S         4.68229322545547   -1.23573809829570   -0.65928618763552
C         5.48156335504877   -2.69109306861900   -0.14632488154863
N         5.59572364266091   -3.78946172851702   -0.80588531823574
C         6.18936653396788   -2.60215053916369    1.14688534661022
C         6.40299562814723   -1.55096926250658    1.96003837530164
C         7.11299969195709   -1.79215945091281    3.26515804815768
H         0.28308601909985    2.55672003247233   -0.47011624087967
H         0.79168009363973    2.57435647274955    1.17930337010156
H         0.88061665387383    1.14135987765819    0.32297843449690
H         2.70159639131557    4.15121018979154   -1.01499848285846
H         4.81778997212278    1.74854630504251   -0.67428531773205
H         4.44840737929286    2.61042530727063    2.05648909377321
H         5.97936519599697    2.84531299746531    1.25235621959600
H         7.01325467955466    1.32089819797295    2.71510660343350
H         5.07045165876704   -3.84390464025660   -1.68769250912083
H         6.61685237155569   -3.52943476292424    1.51570717103356
H         6.87139070401217   -1.03723859655698    4.02330855340736
H         8.19979670992624   -1.79193088046944    3.13967201807298
H         6.84896154143981   -2.74108081399756    3.74233109038209
