30
 energy: -48.313531090364 gnorm: 0.122146048986 xtb: 6.4.1 (79825abcba525fcdf90b791dcacef51065a7a4e7)
C         1.13802324781722    1.47709619214972   -0.90371969461172
C         2.60543782324813    1.71396102532964   -0.75372790731909
N         3.53604237688392    2.02714195207698   -1.58619332953195
O         2.92628720219376    1.53153544302206    0.54128612197592
C         4.32256988870508    1.58293970988727    0.88202195180438
C         4.71517485907739    2.01355049617588    2.29567984244842
C         5.89945014330229    1.14537336120840    2.76858782219714
C         5.78807527926234    0.86967150400740    4.20740101922570
N         5.72007146676067    0.59382934832377    5.33390296795199
C         5.77456146175455   -0.03473891966029    1.83479145808438
C         4.91960134755366    0.21197977339000    0.83389233807798
S         4.35737612266343   -0.89625024709497   -0.34580311296182
C         5.22830637554629   -2.35211743601627    0.03096101547345
N         4.98031614960879   -3.44674972447269   -0.59732804236112
C         6.30270669750628   -2.26538489332502    1.04062928154529
C         6.59364758397594   -1.23893231825273    1.86135187274335
C         7.74774903568998   -1.26090716466391    2.82736562173437
H         0.85588489360507    2.04076632010696   -1.79650331620049
H         0.56988963715156    1.72739187053086   -0.00359421432849
H         1.12456200610100    0.43954450078592   -1.24932975498031
H         3.26481441632166    1.98891023085272   -2.57483706808400
H         4.75320909817490    2.24825871576505    0.12409130455583
H         3.81742218298568    2.01835276009914    2.92617674233830
H         4.97340994206452    3.07964722064441    2.33678059920854
H         6.85696008081212    1.64458461527991    2.57160116781148
H         4.13034246667965   -3.53994669743422   -1.16769428221266
H         6.89623004092338   -3.17177516210253    1.11002911235737
H         7.35550700495451   -1.61302335879164    3.78925590893607
H         8.16798846167940   -0.25359433919905    2.90216005947836
H         8.57116280952477   -1.90502360102426    2.50338146351534
