30
 energy: -48.308590354796 gnorm: 0.129050945860 xtb: 6.4.1 (79825abcba525fcdf90b791dcacef51065a7a4e7)
C         1.04575735577609    1.56327373300027    0.41607185235401
C         2.45951573188885    1.78575515721872   -0.01252736947000
N         2.86420509504776    2.09717039995577   -1.19420112934605
O         3.35484488922518    1.53019164420253    0.96028183438938
C         4.74203129490541    1.72895713068203    0.63693246358577
C         5.44874227105017    2.29057817904742    1.87108575540307
C         5.86234922560317    1.07939992426231    2.73239752981988
C         4.92008505122024    0.62798323391428    3.76533534396968
N         4.28988875909736    0.07636399077142    4.57049925117478
C         5.80838052915932   -0.07837568055335    1.76447146237693
C         5.31424344645538    0.34726012355379    0.59473274285283
S         5.07177212386481   -0.54902092556396   -0.84535068567285
C         5.66696534171512   -2.13350675275303   -0.45143485978530
N         5.58174443844015   -3.16237090461772   -1.21866500200901
C         6.29357591243019   -2.28666486919334    0.87716981161812
C         6.35960949015199   -1.41936314997261    1.90443041863187
C         6.84222777514442   -1.98967468659726    3.21112087861911
H         1.06152364873617    1.05307587097034    1.38242490617241
H         0.39027540108412    1.19200907769033   -0.37649080727583
H         0.69464857972645    2.59077986045117    0.54681900073914
H         2.07273929193749    2.15357493939539   -1.84446501709671
H         4.72746180759133    2.25938220995715   -0.32275255767340
H         4.94532923056426    3.02913280964987    2.50718452145034
H         6.33871631795133    2.76338236499030    1.43595444380701
H         6.79669966308419    1.07044186055375    3.30837488851022
H         5.18137132058898   -2.98080418089304   -2.14774706376403
H         6.73261839683479   -3.26519545875124    1.04554200801473
H         7.64498626189440   -2.72717618407068    3.08970054939264
H         5.97552851451677   -2.38177596556048    3.75145733866898
H         7.40535479902236   -1.21830320978697    3.74566364095875
