30
 energy: -48.308555689588 gnorm: 0.132629193472 xtb: 6.4.1 (79825abcba525fcdf90b791dcacef51065a7a4e7)
C         0.86378188463934    1.61356339876908    0.28387710755028
C         2.28840613840145    2.04664408938269    0.16224291945654
N         2.78279698409596    3.17296517609126   -0.21734147381560
O         3.12259130491274    1.04374103723302    0.49631676394999
C         4.51917354919587    1.36314018784871    0.37025776242961
C         5.11557937830881    2.09399872286858    1.57364416755514
C         5.55479790007295    1.02188916884528    2.59224597720859
C         4.48837028302763    0.61695687296910    3.51818403233909
N         3.56324847974649    0.54107905082127    4.21683435145639
C         5.89826193255819   -0.08059662315132    1.61921187983912
C         5.23646277036115    0.05346188098903    0.46263238426996
S         5.04734737586894   -1.11073437046333   -0.78028144192627
C         6.03596311703359   -2.43310339812295   -0.23806466358036
N         6.23002358460322   -3.51601001699589   -0.90448788905778
C         6.73708656159141   -2.31886745710427    1.05679619211824
C         6.67346443945712   -1.27917067639091    1.90933350323209
C         7.49040775777341   -1.35854660622499    3.17104610075201
H         0.35069831985861    1.59912886408770   -0.68096772931419
H         0.38033682618073    2.38502290998378    0.88950133540722
H         0.85442123089899    0.58470467807455    0.65469126910860
H         2.00613662527583    3.82568952873838   -0.36963172341330
H         4.68598351973731    2.12271213661688   -0.40290668094252
H         4.52079034118865    2.90415415620562    2.01339801507874
H         6.06305922501627    2.56600557191298    1.28307862165010
H         6.39557606821252    1.26216681427743    3.25572139044055
H         5.88703520281039   -3.60218000877826   -1.86957456038157
H         7.32126694987476   -3.20218991077892    1.29576128892750
H         8.13690160709672   -0.47561894572316    3.24559134122504
H         7.83078614819760   -2.38542958031385    3.33392155996524
H         6.80330665813651   -1.22391170247593    4.01225207216855
