30
 energy: -48.309117605002 gnorm: 0.121460156975 xtb: 6.4.1 (79825abcba525fcdf90b791dcacef51065a7a4e7)
C         0.92740421011377    1.58537206829659   -0.49643565005150
C         2.37779748667372    1.94316358464961   -0.51232930822543
N         2.96230195238254    2.86565161247330   -1.19385420687820
O         3.01865115969309    1.20870560519682    0.41673625542697
C         4.42935745718495    1.45724230874334    0.54513394271042
C         4.72105141270401    2.01429635500865    1.93890525152262
C         5.82086116074722    1.12895032088932    2.56056632481431
C         5.66600016438357    0.98903169519825    4.01488414706958
N         5.59755711778746    0.86248943524759    5.16771663729621
C         5.82802477769386   -0.13477612942630    1.73401793076112
C         5.06195677022136    0.10654650960784    0.66232327251478
S         4.80358059758296   -0.98553555569157   -0.63249372758389
C         5.59461258131130   -2.43514423841998   -0.09126993660021
N         5.63963160526563   -3.55414083646041   -0.72395164666358
C         6.36111833162199   -2.42911068374962    1.17115682451214
C         6.51805215992067   -1.38766593860822    2.00937035436300
C         7.31958171454289   -1.54020430758725    3.27424119666954
H         0.59319506380625    0.87410748943265   -1.25590625962201
H         0.36833731757681    2.49840631269784   -0.71883683494197
H         0.74592691474540    1.22776353134551    0.52107265875853
H         2.31071935013790    3.43816076218920   -1.74168273933816
H         4.64591929414877    2.10448518675141   -0.31319936488361
H         3.92653238306431    1.83247104418106    2.67319972343683
H         4.78726773283235    3.10957249034182    1.90853283628623
H         6.84135627996764    1.52315993359405    2.47095899489924
H         5.05758967606120   -3.66354525946634   -1.56402097305127
H         6.78708658208105   -3.38144863361337    1.47154522050688
H         7.19816250614994   -2.55795984419833    3.66475832936622
H         7.09545953956017   -0.74215147344306    3.98821281804867
H         8.39243051762570   -1.35694394729823    3.15903229039225
