30
 energy: -48.318472876122 gnorm: 0.108970112992 xtb: 6.4.1 (79825abcba525fcdf90b791dcacef51065a7a4e7)
C         0.94774144835719    1.78878002098006    0.97514137104447
C         2.26663151624933    1.97294510375310    0.29800014915671
N         2.68220944820475    3.11064129582576   -0.13794499243959
O         3.07756228599775    0.89892112226598    0.25164790064184
C         4.47080931453191    1.23911037344273    0.14449078522248
C         5.05691359109528    2.08734624542357    1.27363676028643
C         5.57172898144779    1.09150390587359    2.33342192707718
C         4.56946906695072    0.87563903347234    3.38578912920734
N         3.74675517208133    0.62652810876266    4.16732969524353
C         5.81381668523989   -0.16502901452588    1.53170102962405
C         5.24137967291711   -0.03000699054795    0.32849245358856
S         5.24212636587376   -1.18106387035609   -0.94076711116960
C         6.31195848038804   -2.39100712565862   -0.29927155330622
N         6.77884122152309   -3.34995317599042   -1.01823547599934
C         6.66646114135323   -2.37981061486311    1.13442684456737
C         6.48115498328293   -1.37012689916416    2.00508032234576
C         6.85213037114385   -1.41378774129493    3.46319095169056
H         0.21175163232629    2.43077068614922    0.48467665705802
H         1.10055824621977    2.06813256784927    2.02120962307797
H         0.67211742314863    0.73180173260044    0.92064985203066
H         2.03620424704537    3.88010796661162    0.06951834398270
H         4.56143279561682    1.70616352936385   -0.84354115034464
H         4.38154328842121    2.82032176574497    1.73203736294748
H         5.94354340298975    2.60816162787235    0.88948083411181
H         6.47548135763915    1.52283984709375    2.78289033152802
H         6.55549509854141   -3.23953907847558   -2.01542343469965
H         7.14888000606035   -3.31821809302907    1.38995190255864
H         7.74227828097505   -0.81839036868977    3.70027998619957
H         6.82261598437520   -2.42830913988321    3.87154097505373
H         5.94741231671364   -1.02147885246078    3.93799717166016
