30
 energy: -48.310850390544 gnorm: 0.131361183262 xtb: 6.4.1 (79825abcba525fcdf90b791dcacef51065a7a4e7)
C         1.01469982292664    1.77787934597221    0.67741059258281
C         2.34803555913362    2.06969552093373    0.06998392498563
N         2.69459432263886    2.95177000438231   -0.80119196787538
O         3.23369471888722    1.25794855817830    0.67822686583983
C         4.62352198068773    1.36858101656775    0.32539646256822
C         5.40615764015156    2.22134189724011    1.32453271579914
C         5.89606427381840    1.17170761597127    2.34342467761453
C         4.73042568092667    0.98453376023104    3.21798282914959
N         3.90383132640295    0.76787500484050    4.00507928793922
C         5.87151434870519   -0.12937733972343    1.57738741308259
C         5.16447983052493   -0.02113955815142    0.44512740107885
S         5.01639750982561   -1.23682756780161   -0.75325760454776
C         5.95343173682067   -2.54075435783682   -0.08860598842059
N         6.03159032620759   -3.67052715732312   -0.69850007828587
C         6.55678030019795   -2.42083656967402    1.25410724777219
C         6.43070903337176   -1.37301916880215    2.08958423590577
C         7.03586674090445   -1.41561603088461    3.46711292133840
H         0.59215866429519    0.88908313462455    0.20213286039051
H         0.25493059482365    2.52238625110309    0.42421147201652
H         1.07573683557303    1.58678775906791    1.75253826830183
H         1.82754026844645    3.36896012880217   -1.15701830251328
H         4.77823000581489    1.73964528369576   -0.69486581324117
H         4.81767450719273    3.01020385011653    1.80919104415389
H         6.22795769546535    2.73420018553204    0.80824025654716
H         6.82971495406511    1.45779769575960    2.84471279336773
H         5.70604599172807   -3.71188371249363   -1.67254787364044
H         6.77754634028382   -3.42837593042812    1.59286439985650
H         6.77835051464548   -2.39373682426652    3.89142136488035
H         6.68357887451823   -0.52392815777038    3.99404793595182
H         8.11148947970780   -1.27726750732701    3.31960909282506
