30
 energy: -48.307153771145 gnorm: 0.123617970536 xtb: 6.4.1 (79825abcba525fcdf90b791dcacef51065a7a4e7)
C         0.99707870578520    1.40194359200164   -0.31858872973078
C         2.39386437513393    1.91388053017258   -0.18140860134240
N         3.13413295614422    2.53114952483077   -1.03468887453829
O         2.96710552437847    1.43085681339643    0.93723675289950
C         4.38876268632564    1.62902735870964    1.02650038355737
C         4.87383883813151    2.05031675318349    2.41401950510105
C         5.70248556056379    0.85206070771887    2.92137390596895
C         5.18739527844546    0.18901843938104    4.12705058020457
N         4.89117803220304   -0.28455531861413    5.14572780737492
C         5.84952545457967   -0.12196627202904    1.77687028927881
C         5.09203591298535    0.33354460968180    0.77071653280495
S         4.96090662305535   -0.41044055219886   -0.76721829084948
C         5.76854804511366   -1.93972739357272   -0.59687430865478
N         5.68017947523971   -2.82056294272803   -1.53003338823456
C         6.55057447340623   -2.16332687688661    0.63589757705705
C         6.58934877892172   -1.37569640473491    1.72675588375634
C         7.11399150533476   -1.96671223932738    3.00779682997982
H         0.51779030299667    1.92203298122539   -1.15176236901333
H         0.43206630443600    1.64012827450768    0.58677233086745
H         1.09445739612036    0.32825919313182   -0.50260023292082
H         2.56968793798934    2.66259032222363   -1.88119218325535
H         4.65381752553344    2.29769496652512    0.19873958732630
H         4.03011241912193    2.26554982941265    3.08133481276893
H         5.47945660973795    2.96522387868507    2.38071907281878
H         6.71989042375837    1.23868330537685    3.06368065963649
H         5.23198873779829   -2.60120086123933   -2.42862335216408
H         7.25159452191331   -2.99186049857671    0.66296303584403
H         7.64623049062722   -1.09808314917979    3.41434045312824
H         7.77621322413865   -2.83373116127706    2.92646363562917
H         6.37694787003182   -2.28136556540944    3.75319734287983
