30
 energy: -48.314471754719 gnorm: 0.125637573264 xtb: 6.4.1 (79825abcba525fcdf90b791dcacef51065a7a4e7)
C         1.10625804665908    1.86513152626534    0.68463207359175
C         2.48582062051390    2.22342398088331    0.23703667203944
N         3.02449522303221    3.35993983249369   -0.03731200913675
O         3.23870982958531    1.10698875066065    0.23316762483577
C         4.65311907131326    1.27771132631693    0.03657426642595
C         5.32335006891913    2.12343066756850    1.11987577211394
C         5.78057690303295    1.09654269255472    2.17643914719169
C         4.67848715278877    1.10640469686480    3.14798443603458
N         3.75186053794057    1.35471181979036    3.80329105150793
C         5.77127871008730   -0.22942629110937    1.45397278423402
C         5.24062478565017   -0.08411503703470    0.23294165723729
S         5.08023509860483   -1.47433086756666   -0.75575821032457
C         5.87500844150686   -2.78671630715448    0.06032988334196
N         5.87564268307081   -3.96364842102480   -0.45860801376530
C         6.42175955008117   -2.60465972759934    1.42018547412898
C         6.44730925138531   -1.39433185279550    2.00865017812369
C         6.99084205752097   -1.23903085447426    3.40366605917021
H         0.78546817203616    0.86982157997329    0.36707794335333
H         0.43825280297143    2.68228606970705    0.39884009818565
H         1.12897897756796    1.79564653446646    1.77586835696547
H         2.37583769671388    4.15375014182115    0.00207478126280
H         4.67148839426159    1.74423479766133   -0.95568416030077
H         4.67621015310685    2.94185901186586    1.45883631057779
H         6.19405452975630    2.65860701611156    0.71937998464178
H         6.74142718786239    1.38559384257413    2.62147517047030
H         5.43861592094403   -3.97445463351812   -1.38884960799791
H         6.76697422894771   -3.56814487529814    1.78233572485318
H         7.99165401593590   -0.79296542651265    3.45340136289860
H         7.01875604060581   -2.20106252471963    3.92384908830437
H         6.39691407669983   -0.65458163828598    4.11326498028562
