30
 energy: -48.308270057092 gnorm: 0.134652341295 xtb: 6.4.1 (79825abcba525fcdf90b791dcacef51065a7a4e7)
C         1.03222395999011    2.16191323364822   -0.46458054951329
C         2.51017171434400    2.01191158444313   -0.30622032193668
N         3.43160697251093    2.30691728232679   -1.15535783167065
O         2.86199589302082    1.55720130406109    0.91145905351658
C         4.27704426405387    1.43792847142573    1.13896892884244
C         4.55359810175161    1.75625437430088    2.60872385239307
C         5.53690635556490    0.63070858199612    2.99099730133309
C         5.13264354032231   -0.03790604924660    4.23523415480353
N         4.79499269500145   -0.53705747601164    5.22849133002898
C         5.64276441654861   -0.26785138232765    1.78202174729807
C         4.82148116929675    0.08974991921616    0.78641083533470
S         4.78132161402355   -0.61473296794449   -0.77501268142048
C         5.71352026355425   -2.05986611504835   -0.52478107876291
N         5.71416397099113   -3.09663922838300   -1.28607421826637
C         6.64929590758358   -2.05785531595930    0.61785119169838
C         6.59156144003347   -1.37303342225897    1.77522873742083
C         7.76909248530566   -1.36575417251265    2.71276981614818
H         0.79791234403902    2.58491949306981   -1.44465831666989
H         0.59483430800088    2.76655506079863    0.33463666724042
H         0.62178671866452    1.15244035869988   -0.37159228918964
H         3.07206285158878    2.51663241661589   -2.09300931300254
H         4.78911555406462    2.21168567310599    0.55446815144721
H         3.61632043870476    1.58712135396667    3.15316289910358
H         4.91584955897209    2.79198431756050    2.63993634339616
H         6.48978036377730    1.07082716098295    3.31219452898982
H         5.17913598660112   -2.97390500389358   -2.15506210901777
H         7.39465626721101   -2.84719623201002    0.62076193670930
H         8.08905627175082   -0.31668952070881    2.72538263667743
H         8.64550914817895   -1.95818625410849    2.43385662347241
H         7.44257708355375   -1.67572237878372    3.71035157674769
