30
 energy: -48.313497999406 gnorm: 0.120191008688 xtb: 6.4.1 (79825abcba525fcdf90b791dcacef51065a7a4e7)
C         0.90427973522425    1.70133117362943    0.48964971933043
C         2.29749564486974    1.94345915063992    0.00774569169529
N         2.65415338470312    2.59632289498894   -1.04281130042717
O         3.18545117967212    1.26101378303481    0.75546759156210
C         4.53952695883191    1.28087088664057    0.27128465117081
C         5.44804052239722    2.13405349241115    1.15710375788349
C         5.80402670596712    1.18788918399315    2.32240560375291
C         4.67953195807208    1.23508333671275    3.26680148279243
N         3.84554321708794    1.35552142049700    4.06659989931824
C         5.86185966675608   -0.13877372550724    1.60347675230516
C         5.18275591666842   -0.05774384194263    0.45200891238854
S         4.96585418736901   -1.38191902407796   -0.61357357588792
C         5.95258231937219   -2.61030059535742    0.11954734441694
N         6.18186472948881   -3.67020916420882   -0.57218203879345
C         6.61225652756304   -2.44538279246148    1.43062348197408
C         6.46173620143779   -1.33563480993313    2.17737651369251
C         7.15183222503553   -1.11276202062864    3.49635748698321
H         0.26164592691053    2.58228542086784    0.41664245369835
H         0.90999278912746    1.24805277017599    1.48471537352102
H         0.37422825472009    0.99972449819110   -0.16068444959711
H         1.88802224458854    2.81942710903293   -1.68756729952584
H         4.53000118464864    1.67712290765986   -0.75118880001961
H         5.17733285355833    3.14865487834027    1.47461069346070
H         6.36026372349671    2.30569374302609    0.57116407144714
H         6.77064944379800    1.46947528112011    2.75965912941071
H         5.75461486992056   -3.68759744677924   -1.50685513186824
H         7.33334320354073   -3.22766523942725    1.64672017362829
H         6.40441966840801   -0.71522953952533    4.19379203002515
H         8.02535972997868   -0.46376504068566    3.38398699588701
H         7.49636999123605   -2.11320519802463    3.77612372051035
