30
 energy: -48.309595035741 gnorm: 0.132455230321 xtb: 6.4.1 (79825abcba525fcdf90b791dcacef51065a7a4e7)
C         0.97433829659741    1.74060959800777   -0.68061615760707
C         2.41121098863192    2.02258440921563   -0.38431379282448
N         3.03473237199651    2.93596310118750   -1.04315084085872
O         3.13528488578675    1.20582233422356    0.40429349566910
C         4.55723980514743    1.39910497980151    0.49934439611293
C         4.80811016377447    2.04960462647994    1.86019237286019
C         5.90323678263248    1.16696475633727    2.49385315915058
C         5.51802184244039    0.91549253074194    3.88919199849954
N         5.29978271492951    0.86328284893006    5.02908931593669
C         5.88154911657695   -0.11739748398683    1.70001368796054
C         5.22498240090710    0.06112377591571    0.54646427066822
S         4.81314677257769   -1.17110248098278   -0.57065801280313
C         5.34490697969046   -2.64894139230307    0.17314519168658
N         5.14670760237002   -3.80378147812375   -0.35744646960126
C         6.26063724619309   -2.46628395545018    1.31741915860256
C         6.53384219847525   -1.37149932419479    2.05134197504587
C         7.52405415116964   -1.26898130366271    3.18031759187956
H         0.37769484668317    1.51233003825895    0.20611587295000
H         0.87991066383469    0.86502620949110   -1.32875715922093
H         0.45259072503356    2.53957854410010   -1.21500283833960
H         2.53494129296255    3.51399019022784   -1.72764793659849
H         4.80806936927965    2.08592876764157   -0.31791687259581
H         3.88949748962843    2.12802227027756    2.45476002885858
H         5.25287793208591    3.05293415120876    1.83901805242856
H         6.86465283414645    1.68857106442154    2.40194595758123
H         4.56448889149344   -3.68525689711344   -1.19615493178591
H         6.80440390150929   -3.38405737003237    1.51901129993188
H         8.02621222241500   -0.29671742215344    3.10539924917034
H         8.23479138856110   -2.09453015133276    3.07934140326568
H         7.08200712407346   -1.45002855953645    4.16504002749853
