30
 energy: -48.307804131027 gnorm: 0.150251697990 xtb: 6.4.1 (79825abcba525fcdf90b791dcacef51065a7a4e7)
C         1.06308064603660    1.40857267054523    0.45010784014142
C         2.46165052881069    1.52154598213645   -0.06287104459101
N         2.90855580790499    1.59241917056669   -1.26800940621239
O         3.30679200912575    1.64398002080725    0.97829682822544
C         4.69265375670343    1.63189592454261    0.59412259872412
C         5.50882943196741    2.25466345976580    1.72726461202582
C         5.85008805943546    1.12205382704740    2.71752691972866
C         4.64049744161191    1.01835664844661    3.54501514303152
N         3.85029773499810    0.83605687213241    4.37692336356484
C         5.81283122040548   -0.01387233979480    1.72328272938898
C         5.29952573297855    0.26650951626726    0.51848836926264
S         4.99895015566591   -0.75977691735194   -0.82029570957599
C         5.64852287618090   -2.28443839588365   -0.29734003293315
N         5.55246005107072   -3.41466849835268   -0.90382003140612
C         6.32912091050290   -2.28043619867443    1.01340742194452
C         6.46703716061578   -1.29958937267709    1.92486541521236
C         7.21928337281651   -1.55020344401698    3.20429256810042
H         0.70390596935477    0.40141365915757    0.22424740446914
H         0.46113580296096    2.10548414558995   -0.13949067476787
H         1.01977942659751    1.64770887548751    1.51644733137319
H         2.15986009874469    1.54510093140317   -1.96776538687206
H         4.90471725673816    2.30880268270835   -0.24216962722628
H         5.00068468433185    3.09289399729824    2.21987780570850
H         6.44514982208556    2.64828993726619    1.31097242311709
H         6.73465759276299    1.30645165357106    3.34072438309786
H         5.18496660151639   -3.23816683373007   -1.84735292251578
H         6.70108951853775   -3.26648774091857    1.27412053556782
H         6.66912669979570   -1.23210634149719    4.09828049404559
H         8.03302728419734   -0.81902694233650    3.21302664308857
H         7.52213046485922   -2.57582552860850    3.43719799163384
