30
 energy: -48.309575683797 gnorm: 0.123599044918 xtb: 6.4.1 (79825abcba525fcdf90b791dcacef51065a7a4e7)
C         1.00310601287437    2.00426258108430    0.38803872559050
C         2.45536251519349    2.21428152980227    0.10741243634572
N         2.94386170521707    3.11925370382836   -0.66686123170588
O         3.20074161063214    1.18367343081298    0.54961341367666
C         4.59549965651374    1.22730142245434    0.20162599900729
C         5.40307014146944    2.11324536681804    1.15079731067638
C         5.93339303364680    1.18315402772897    2.26145890037324
C         5.05280125914184    1.17811121426861    3.43752521880262
N         4.36778902797503    1.11432328817670    4.37369261617392
C         5.88634044704628   -0.17426479097495    1.60158163223716
C         5.11529745923674   -0.14194706889117    0.50701587098704
S         4.84645511364227   -1.33845051868384   -0.68966938517952
C         5.78553443839701   -2.66340952998072   -0.07109553090388
N         6.04927482209874   -3.80225087874958   -0.60770294951010
C         6.14357428738338   -2.54393118596359    1.35677735131683
C         6.40578487786051   -1.44499984245514    2.08850991417570
C         7.02746621473254   -1.43440471181085    3.45928183158209
H         0.78078579605612    0.98390733758175    0.06580037079095
H         0.44870129822922    2.55140494809568   -0.37937266947932
H         0.61591334959995    2.18951786324047    1.39397279500545
H         2.30468271825343    3.84108812692697   -1.01735802341636
H         4.69347393947771    1.51944112024046   -0.85080632908770
H         4.81057741138491    2.92155023525003    1.59700900118489
H         6.23123767836810    2.57947375797034    0.60151917375353
H         6.97796679184146    1.36640399048597    2.54452427449416
H         5.56002579094715   -3.83806265226277   -1.51092578523529
H         6.18766191368747   -3.52150623405727    1.82691872704950
H         6.23657201678714   -1.53312694493508    4.21281539469195
H         7.55003773288534   -0.48108445108127    3.58165012127782
H         7.67198138070824   -2.30452266522009    3.61852034172257
