30
 energy: -48.309459512143 gnorm: 0.130296316728 xtb: 6.4.1 (79825abcba525fcdf90b791dcacef51065a7a4e7)
C         0.99065635781762    1.46709800569844    0.18921763549817
C         2.39431155501759    1.76107973283162   -0.22939300206165
N         2.89361411317518    2.09009281121709   -1.36937246209608
O         3.21731432080550    1.41107708689453    0.77730922369298
C         4.61818293794783    1.61566107352067    0.52420602360571
C         5.30072827348924    2.31349074489410    1.70113365465538
C         5.78365593294466    1.18000410038973    2.62950344876808
C         4.88930998650553    0.86971213385328    3.75309754322387
N         4.06298556865039    0.61125612835348    4.52776430262190
C         5.88745476682817   -0.05039889276832    1.76026677929851
C         5.22204291860832    0.25158021187973    0.63792015481657
S         4.87682015796292   -0.86918319515139   -0.61134490263577
C         5.59612361357489   -2.37009798888540   -0.11146746810153
N         5.55703727071813   -3.45552481218321   -0.80051544938343
C         6.39566643075015   -2.35062158872152    1.13016080146368
C         6.59627447268118   -1.30759898966870    1.95702088111001
C         7.48316595338639   -1.54631564917114    3.14951981072308
H         0.63291442990110    0.95679330730225   -0.70855655024539
H         0.35633650096990    2.35699968821400    0.22613543339584
H         0.98082771414561    0.88813225881305    1.11703393996695
H         2.13104434760943    2.31159458740140   -2.01888538020330
H         4.84900353114660    2.19924128307869   -0.37507948755963
H         4.71858599230837    3.08304416686137    2.22306009205754
H         6.10692132246171    2.95228523784892    1.31781752342985
H         6.74968558419480    1.47940901047437    3.05609974429505
H         4.96744457015501   -3.45633849249225   -1.64244085875409
H         6.97214862082227   -3.26330213985779    1.24553936201854
H         6.95237603954985   -2.03875689984981    3.97343502028604
H         7.83197336131526   -0.60149806228438    3.57675238699400
H         8.42561637410563   -2.06262623270141    2.94198042615978
