30
 energy: -48.305164617831 gnorm: 0.134694329226 xtb: 6.4.1 (79825abcba525fcdf90b791dcacef51065a7a4e7)
C         0.97960005208156    1.64949973231616    0.70971266098171
C         2.35241312008318    1.56250542311538    0.12685392063010
N         2.77603369135465    1.25166842729933   -1.04831917266498
O         3.24100734764021    1.82683891770766    1.10348736729801
C         4.66160876101824    1.74615661572423    0.89436842809879
C         5.32919894080971    2.12023437940966    2.21814417075437
C         5.61578047791063    0.76663402749923    2.90043345757060
C         4.37925101242782    0.45439180125777    3.62988471188310
N         3.43205211037015    0.34737935487879    4.29402529311922
C         5.80505601892848   -0.20040806863511    1.75621211932453
C         5.29047349592564    0.40590513327985    0.67861506951200
S         5.24746768889586   -0.30273324809514   -0.88085109561632
C         5.99670571223591   -1.86563782232376   -0.75439232829301
N         6.21232048251732   -2.68497211631629   -1.72220834937747
C         6.53921313243128   -2.19723894995895    0.57865501538709
C         6.50612134659832   -1.47653516682800    1.71502129812778
C         7.08582665315306   -1.98255368386708    3.00866068895646
H         0.78443643808680    2.63288279345866    1.14475010921004
H         1.08976684202593    1.06793945123824    1.62911492731339
H         0.21316315686624    1.29092607414427    0.01679098295503
H         2.12062450585904    0.87201333383004   -1.74023211972745
H         4.90342526372514    2.39157607102024    0.04142238890585
H         4.55929107564382    2.72136683031578    2.71753476189123
H         6.28638956523341    2.63992980596797    2.08161701462948
H         6.34198632978752    0.80905295349003    3.72242292697618
H         5.87658547084100   -2.32639890351573   -2.62507371203697
H         6.98932144208318   -3.18510150688988    0.59129611543931
H         7.47693414539116   -1.39439569503774    3.84781366323052
H         7.89495034246165   -2.66303488141761    2.72734458932574
H         6.24914285987885   -2.53966129294222    3.44161951597316
