30
 energy: -48.314822120601 gnorm: 0.125886550470 xtb: 6.4.1 (79825abcba525fcdf90b791dcacef51065a7a4e7)
C         0.96428816009874    1.95467399652748   -0.42714177482209
C         2.38534496014222    1.56261099927386   -0.66961279902551
N         3.04723714258126    1.49051016994679   -1.77134144754364
O         2.95516652595481    1.40688003926590    0.54048471840903
C         4.38938964889127    1.49081381276385    0.60611849257409
C         4.93743784068250    2.22533376288996    1.83009420987099
C         5.98324176782901    1.30759889404685    2.49638116232192
C         5.57212377695122    1.06113231402315    3.88520639260113
N         5.19655032879967    0.83468266049170    4.96102477725557
C         5.86288647214039    0.04602315736588    1.67529707159109
C         5.06616736702662    0.15654870153598    0.60448022790262
S         4.76008983886870   -1.09888249437179   -0.52075813597313
C         5.50389484279880   -2.48843963384176    0.21129723005723
N         5.23907516950748   -3.68613559884724   -0.17582169554186
C         6.49742287607984   -2.32353282588703    1.29157330360713
C         6.57954322895208   -1.18044580262579    1.99757993868912
C         7.45606996948490   -1.19911901128173    3.22108629609263
H         0.32175605672559    1.49671386138908   -1.18332539625737
H         0.94266042365333    3.03722638620250   -0.57966118750059
H         0.80214900281569    1.69228372512025    0.62214525453421
H         2.45518421783298    1.60437054073661   -2.60137268970341
H         4.71892040038839    1.97247679625645   -0.32230416211951
H         4.15102627568234    2.43581858577125    2.56545960181385
H         5.31815878415968    3.20577828746686    1.51590166899676
H         6.97117855931642    1.77960290617539    2.41870233485261
H         4.43212970093985   -3.82110054221445   -0.79798088896552
H         6.98895898660432   -3.21678207320115    1.66457148888512
H         8.15274784583435   -2.04628921175489    3.21719602543124
H         6.76891910461964   -1.34796586554017    4.05926456948787
H         8.12063915467565   -0.34526121568819    3.38581827078860
