30
 energy: -48.306010134097 gnorm: 0.140095953187 xtb: 6.4.1 (79825abcba525fcdf90b791dcacef51065a7a4e7)
C         0.92957768471644    1.90270807717903   -0.81481121800672
C         2.40609048951807    2.03815120720448   -0.63185457368706
N         3.20514362381578    2.80929890559263   -1.28296987722425
O         2.86205089692516    1.29540407715691    0.39464997547843
C         4.26006690168867    1.37100281483677    0.72356457458751
C         4.38685414321282    1.77861875488803    2.19181771345883
C         5.67817631745063    1.07871851656008    2.66352553184656
C         5.55271620252687    0.71203148094291    4.08070577688222
N         5.51200960976056    0.26940488807917    5.15408586465958
C         5.81278921074470   -0.13353512450096    1.77326793421908
C         4.96760886541762    0.05308365749588    0.75127484232166
S         4.64211783030763   -1.09067379199877   -0.48234870226497
C         5.60583730880010   -2.44112542197224    0.03489909730715
N         5.42843382813175   -3.63873306571210   -0.39953177343692
C         6.68160033063327   -2.26207732499587    1.03087324216085
C         6.81260198853163   -1.19098060529113    1.83550216028377
C         7.81370264910265   -1.22980110210828    2.95884817940232
H         0.82311922044344    0.92983494125258   -1.30119904492533
H         0.56257273479282    2.65166996059164   -1.52192724363486
H         0.39602658719116    1.98154303687519    0.13663468655520
H         2.67398540035533    3.33065679215382   -1.98901492625720
H         4.62447634989004    2.15002017204657    0.04319985319384
H         3.55024304748847    1.50527593284137    2.84670311229185
H         4.38673454495860    2.87166894673622    2.29270457454937
H         6.54677268853449    1.74981342599131    2.66712471222526
H         4.71300080681699   -3.71625035131521   -1.13342908856258
H         7.22207119935667   -3.19780535684906    1.13543903275216
H         7.78884893618964   -0.36979706228493    3.63917746385863
H         8.78820263368183   -1.01301261375963    2.51138076876710
H         7.93720911819210   -2.03947677659442    3.68481889019231
