30
 energy: -48.313033749551 gnorm: 0.122162998507 xtb: 6.4.1 (79825abcba525fcdf90b791dcacef51065a7a4e7)
C         1.05854058783703    1.52762632045496    0.26036929763825
C         2.46426175640175    1.39170918109659   -0.22684990271925
N         2.88982359867691    1.31452630402091   -1.43930432647298
O         3.33391142491295    1.71448692230673    0.74926932045317
C         4.73581729312905    1.64985491376438    0.43489488049950
C         5.45617623426770    2.36948902955705    1.57559759447636
C         5.94476314958601    1.24742083514081    2.51481388444489
C         5.07922902013195    1.07637919104297    3.68963078336385
N         4.63407283228412    1.15654487864661    4.75973802103459
C         5.87683703261390    0.00178441303246    1.66392389164774
C         5.27149409456568    0.25429839780707    0.49626702432404
S         4.99254176855749   -0.82445675137738   -0.80543388413097
C         5.49310847635205   -2.33404432551120   -0.10500665225837
N         5.32835525684275   -3.47582412576626   -0.67391912599221
C         6.19558036843047   -2.31058644392121    1.19394352180579
C         6.38039174517595   -1.30387142543813    2.06813267800323
C         6.95433907117334   -1.54394787304270    3.43873961335763
H         0.37132856413957    1.23920805343095   -0.53896992726940
H         0.81996674475398    2.58724661524850    0.38661096647209
H         0.83505847540118    1.01859607401808    1.20222118838591
H         2.20294687912017    1.06397313732729   -2.15893353348449
H         4.91198410635268    1.99537729837145   -0.59084285774276
H         4.71134087020094    2.99684774782395    2.08072192784948
H         6.30052639295643    3.04119164757761    1.37354498340314
H         6.96289063173261    1.28595088203252    2.92319210281558
H         4.95862308731332   -3.37750550744749   -1.62790558275885
H         6.49606537012193   -3.29408110433814    1.54190419505029
H         8.01898097868355   -1.30174326948741    3.54336789736127
H         6.97091080370420   -2.63244028975985    3.54729444099694
H         6.27628432221517   -1.09040876621257    4.16840117867446
