30
 energy: -48.316375291101 gnorm: 0.129086467774 xtb: 6.4.1 (79825abcba525fcdf90b791dcacef51065a7a4e7)
C         0.90565603999123    1.97477740539062    0.38613210952293
C         2.28205583482228    1.61315865473945   -0.06847049054697
N         2.73263696730112    1.15967239095728   -1.18580333076477
O         3.14737343878162    1.79435083351989    0.94724582002869
C         4.56981037402294    1.65267321212476    0.78929217445442
C         5.18118149452384    2.14860154450846    2.10012148627538
C         5.60785236398557    0.86382303559410    2.83983610237526
C         4.67101636737923    0.35743673286568    3.85201725497818
N         3.99814990037592    0.17744426722353    4.78184173517204
C         5.75816932927876   -0.13445962428134    1.71686030936523
C         5.16180214657562    0.29231897348661    0.59622099697523
S         5.13003699379746   -0.54197302668288   -0.90007456312181
C         6.03068625197337   -1.99753969608220   -0.59978019634063
N         6.38312095729787   -2.87898220802531   -1.46771747600102
C         6.44252007592793   -2.24168561629449    0.79738638784464
C         6.38300664847899   -1.44041519036126    1.87732210688384
C         7.17858197517607   -1.72388017795512    3.12324478640540
H         0.74056139529984    1.68782246845335    1.42766429092339
H         0.13953145009425    1.48018079703744   -0.21725575740724
H         0.73457210784020    3.04837582464023    0.26672626148667
H         1.94877256883879    1.11595203565022   -1.84617281140540
H         4.90955884177339    2.37050158078183    0.03308330592423
H         4.50630461835646    2.79676664283161    2.67277541010007
H         6.11004566973766    2.72805877591824    2.02026190699818
H         6.57099302584479    0.95987528284708    3.35749913221540
H         6.06525312696126   -2.63658410656137   -2.41463975880872
H         6.88261811671580   -3.23317043044941    0.84099012123361
H         8.16405662041340   -1.24244449334668    3.13473354522197
H         7.40518424073758   -2.79416681740101    3.11971342899176
H         6.60373697418394   -1.46636593047870    4.01828760237584
