30
 energy: -48.305375187072 gnorm: 0.133078081141 xtb: 6.4.1 (79825abcba525fcdf90b791dcacef51065a7a4e7)
C         1.03909320683886    1.40397882264047    0.09400083004218
C         2.47984512371787    1.61778118805244   -0.23831001411477
N         2.91492064319652    2.06611241615329   -1.36383843291737
O         3.28749002056946    1.57887354159987    0.83848183719752
C         4.68134623412292    1.61422530651255    0.48597108904156
C         5.43842089464212    2.35751209926961    1.58704135840786
C         5.97968896905312    1.22356760103551    2.48207225709193
C         5.06234471238168    0.93845183780213    3.59373226395939
N         4.31375042857997    0.62476629099916    4.42495311887385
C         5.97022039307275   -0.03609763552201    1.64937066922753
C         5.17319990663524    0.20595657185023    0.60065986037720
S         4.82074227334721   -0.92372713209097   -0.63850958216997
C         5.51428259268626   -2.39667285812586   -0.03068325656468
N         5.24999836760988   -3.52595444572066   -0.58686955222598
C         6.33106041319688   -2.34955337457619    1.19892747730432
C         6.62784799126164   -1.29335397812774    1.97879752018497
C         7.30253321261155   -1.42158239849510    3.31819035380167
H         0.58129975002816    2.22364587890293    0.65342886762915
H         1.01991700086814    0.49199068929232    0.69695980593916
H         0.37807735557662    1.13716091139269   -0.73546121249260
H         2.21153597230413    2.35432749828472   -2.05276860818949
H         4.78549225627941    2.08964608200868   -0.49672272370967
H         4.73811910451481    3.08558571813915    2.01482111228849
H         6.33477110144403    2.88861367236825    1.24146312314205
H         6.91948114622996    1.56255741226393    2.93673428424720
H         4.70723836473394   -3.35031750012473   -1.44186770936282
H         6.49231499281505   -3.33171356610533    1.63250334127890
H         7.44368460599514   -0.53553900363629    3.94912298236556
H         8.31651242262910   -1.81835741145821    3.21193450286250
H         6.70959971089872   -2.03520653508172    4.00357877455698
