30
 energy: -48.319061024497 gnorm: 0.118938162830 xtb: 6.4.1 (79825abcba525fcdf90b791dcacef51065a7a4e7)
C         0.80421180404344    1.52889854928712   -0.05873816649858
C         2.20423414894940    2.04996639536947   -0.04046880756758
N         2.67603222909849    3.24076332400701   -0.16897976745165
O         3.05938243501668    1.08255077618320    0.34177876470097
C         4.47311590329476    1.34560328212355    0.36435707625194
C         4.87180243121208    2.05193087621495    1.66056054084112
C         5.67213175673909    1.07185669358102    2.54306217602065
C         5.08502635193272    0.78724504065406    3.85945988310996
N         4.50460428755555    0.61501245615229    4.85100731319839
C         5.77901526046393   -0.14096914863719    1.64982788459185
C         5.13976672488273    0.01150413276433    0.48289195422769
S         5.03645138174892   -1.11181191226313   -0.80685203708980
C         6.08489314569834   -2.39460316635031   -0.28222208255408
N         6.29067780143942   -3.40756410030551   -1.04774743720667
C         6.64852290363551   -2.34504235348824    1.08201910721923
C         6.53553891761173   -1.34288212545449    1.97350483756310
C         7.24265904674888   -1.42467209986740    3.29974288284866
H         0.89548599914287    0.51792508130459   -0.46369536133513
H         0.23321887117804    2.09523193149630   -0.79960467278670
H         0.23529374680312    1.57384787228797    0.87424245287861
H         2.04597426663612    4.01709136936470   -0.39872842480570
H         4.75816616338263    1.89519496574564   -0.54076930617107
H         3.95908327342315    2.36246561544657    2.18403090506575
H         5.40797791899029    2.98044436971709    1.42536820961341
H         6.70923665441690    1.33315114824912    2.79000270012559
H         5.73620969538757   -3.39982254763745   -1.91317438110102
H         7.17864096110469   -3.26337613350992    1.31497323797362
H         8.31295947939398   -1.42510862667631    3.05989005926068
H         6.99119634602992   -2.30785302737315    3.89441297011377
H         7.06164758830186   -0.61959565248685    4.01873438165208
