30
 energy: -48.314421782297 gnorm: 0.119273210424 xtb: 6.4.1 (79825abcba525fcdf90b791dcacef51065a7a4e7)
C         0.86862483560369    1.60407381622743    0.06700706630169
C         2.31519851433276    1.66033067928883   -0.30200214453551
N         2.70040469317921    2.19840495108039   -1.40617518436119
O         3.16664276828871    1.20113827499264    0.63473143692448
C         4.58027028021131    1.45952710857304    0.57779989772821
C         5.14773069376802    2.21041045180254    1.78285422211549
C         5.78668045210943    1.12523052082214    2.67392620934478
C         4.88002915109210    0.80091175382114    3.78361094964260
N         4.27514891858216    0.56167930079215    4.74621568538622
C         5.93155279523960   -0.04225126506829    1.72722858715610
C         5.38040257104452    0.19627202214105    0.53016286954455
S         5.20140776851619   -0.86061730387200   -0.80658631321749
C         5.71650910566725   -2.35280631454352   -0.07990709024649
N         5.38372078936364   -3.45092907519242   -0.66115109112557
C         6.51107699139049   -2.34084401992643    1.16500559125326
C         6.62082625770108   -1.29497468339082    2.00521374646302
C         7.39125128474671   -1.35013644360482    3.29711865508102
H         0.75568213679541    1.19107129191070    1.07252261764384
H         0.39282479653902    0.94346922124004   -0.66296930441151
H         0.35043367706313    2.56668985620150    0.09846048520023
H         1.92323232128474    2.51565950031056   -1.99591696791709
H         4.74879996900987    2.09460837367545   -0.30016819275673
H         4.32873720030122    2.71164459507861    2.31344191468974
H         5.86719580848394    2.94267723993648    1.39414843118033
H         6.74117243034936    1.38023393350323    3.15221410192898
H         4.89281258982201   -3.23327244388621   -1.53756043396078
H         7.06510779217049   -3.27225053807644    1.22951515770624
H         6.79020183981167   -1.24452140436267    4.20852285736508
H         8.06613328537340   -0.49505558740975    3.19589829819763
H         7.97612703762453   -2.27271151725158    3.36521853865435
