30
 energy: -48.311866753132 gnorm: 0.120472321845 xtb: 6.4.1 (79825abcba525fcdf90b791dcacef51065a7a4e7)
C         0.97498351777586    1.56696707272235    0.16335337097434
C         2.43164837748149    1.40519775228695   -0.12624323815221
N         3.03199383390521    1.00724571360447   -1.19316653289417
O         3.23381382785181    1.73204561749044    0.90476879836794
C         4.63332534624194    1.68070433840178    0.57753763510028
C         5.31582802960311    2.32547237887264    1.78437532526554
C         5.79486827559423    1.16788144872487    2.68458925785287
C         4.88079239944694    1.05610924820932    3.82939123704345
N         4.25069181785801    1.07563655015679    4.80525598278748
C         5.71743639672333   -0.04367632497654    1.78660825306707
C         5.14532638239471    0.27554635907600    0.61852736502960
S         4.86680012090919   -0.78541799341927   -0.69780469555617
C         5.75455286029760   -2.23968598891800   -0.35572334776391
N         5.96208219807100   -3.21239090692029   -1.17134755724169
C         6.37518574158547   -2.23506956443713    0.98445652935627
C         6.27376567952383   -1.37093308178626    2.01150042622763
C         7.12583173165958   -1.61674394323874    3.22771425649069
H         0.52486287338281    0.62391665729666    0.48340958210069
H         0.36016220387734    1.80004017285082   -0.71032923075794
H         0.91068534804545    2.33395484258301    0.94035822119248
H         2.48008870433468    0.69534310275818   -1.99973965560422
H         4.84931444196094    2.21208858559538   -0.35709483891046
H         4.50194069556769    2.92184915379243    2.21499281536488
H         6.04746260238827    3.04431551785238    1.39333536827861
H         6.83610229030310    1.30838041426649    3.00228827003872
H         5.61008153782698   -3.09602389394484   -2.12999913056320
H         6.97207985147128   -3.12037003976217    1.18090016500779
H         6.66147597537444   -1.24919006663047    4.15094251775946
H         8.07632532867509   -1.08089138067568    3.14835138506642
H         7.50249567762522   -2.64434765736927    3.22361031083742
