30
 energy: -48.309547756222 gnorm: 0.143475954939 xtb: 6.4.1 (79825abcba525fcdf90b791dcacef51065a7a4e7)
C         1.09860201118565    1.62728856476169   -0.88198926542213
C         2.58130910839166    1.77003246701827   -0.76748222330937
N         3.38114183059512    2.24439052730376   -1.65762707261661
O         2.91574750969594    1.54316954781869    0.51702893783575
C         4.33495709027002    1.54169606300210    0.74981775641496
C         4.82139633707314    2.09475557850784    2.08977856361812
C         5.98255750554978    1.21172407153534    2.59161671216170
C         5.97413469901590    0.95076943369635    4.03744900300966
N         5.77058918594764    0.76173633664410    5.16552513599065
C         5.80740299572486   -0.00632519978920    1.71645119818116
C         4.86707134098215    0.14365106190563    0.77469250218549
S         4.42989895458456   -1.05934697758487   -0.36444240746243
C         5.24817182319069   -2.48837406352254    0.19083327398364
N         5.32845767406238   -3.60029120330930   -0.45077455204366
C         6.21276480766441   -2.43119066860308    1.30778404935571
C         6.43753428816432   -1.29130447447685    1.98747162460733
C         7.50428918794093   -1.31112228668445    3.04919515666239
H         0.61750460192149    1.71652005870156   -1.85921579053249
H         0.54252115525990    2.36533409403482   -0.29742747692066
H         0.90414504173791    0.61983436323606   -0.50335547194378
H         3.04350399796948    2.35365665121281   -2.62017801698739
H         4.76312961975646    2.07407877722600   -0.10796735787590
H         3.98679821810478    2.17946591009489    2.79672934357801
H         5.08924064999386    3.15700520575146    2.02033792126030
H         6.90204200487932    1.76774492071528    2.36749629140165
H         4.69422541013881   -3.61781914821472   -1.25941587940339
H         6.65489138460212   -3.37030242952588    1.62593935665281
H         8.01399607307681   -0.34341902138859    3.13178950617627
H         8.18142214271696   -2.16494472331341    2.95248570791210
H         7.04697951648495   -1.43040927151440    4.03636304743028
