30
 energy: -48.313150774432 gnorm: 0.119422507491 xtb: 6.4.1 (79825abcba525fcdf90b791dcacef51065a7a4e7)
C         0.97817324124757    1.59021184221491   -0.04804887644780
C         2.40760327778452    1.99652076613413   -0.20151173587153
N         2.96179748275559    2.80920801452658   -1.03188154859213
O         3.16994994938235    1.44634487065086    0.76255194920503
C         4.60241091684439    1.57320966039013    0.74495783685945
C         4.97181639641770    2.00162719955386    2.16551792062373
C         5.87703324433088    0.89413121471859    2.74337304453722
C         5.22526177703494    0.56485595206479    4.01827344973455
N         4.66920053921988    0.40368031993062    5.02551640315770
C         5.87015996015426   -0.22685907125706    1.73165601458897
C         5.18042594147942    0.19564764184262    0.66423810050222
S         4.85989797859741   -0.72923980716649   -0.74210373657323
C         5.75565210599835   -2.19767306577950   -0.49441785703262
N         5.73542725952092   -3.14704022593922   -1.36203476350149
C         6.51319387383561   -2.35239598829068    0.76394611318473
C         6.53850811334556   -1.51806357206692    1.81992227787831
C         7.12952539138582   -1.88434748589989    3.15489429251938
H         0.60485242620340    1.59560217000444    0.97907875515159
H         0.80935566348004    0.60801390513912   -0.49797936431316
H         0.43723565729194    2.34566379637096   -0.62495433310131
H         2.28742832515974    3.14241071400563   -1.72948094162334
H         4.89991455529370    2.31471559616810   -0.00618721974570
H         3.99777466580994    1.99054548034190    2.67012586498260
H         5.35679777479016    3.02143734209219    2.29479848251406
H         6.88376934950629    1.30712696003389    2.88744879659017
H         5.30531823113164   -2.77089512254915   -2.21642324446292
H         6.95161813467215   -3.34277987023063    0.83846822457132
H         7.17871170284342   -1.10763419200459    3.92779124857967
H         8.17498271331708   -2.19908931393361    3.08538834095427
H         6.44974912893664   -2.64108213117380    3.55877407294468
