30
 energy: -48.307898519811 gnorm: 0.129417434772 xtb: 6.4.1 (79825abcba525fcdf90b791dcacef51065a7a4e7)
C         0.82271776509390    1.76966741475745    0.06429593225139
C         2.27772114670480    2.06069508944999   -0.10941670294376
N         2.72496565844328    3.00981355690576   -0.85523993519657
O         3.00682656358538    1.10769039202035    0.50170693198210
C         4.42025192682920    1.19153480035354    0.24962062144226
C         5.16245418556670    2.11967907913619    1.21174169492842
C         5.90287018597142    1.24458478111407    2.24415419897972
C         5.03605017699301    1.20066598660462    3.42960497485572
N         4.25525220225932    1.01555142370699    4.26972829636543
C         5.87878858901159   -0.10812557476814    1.57345858174855
C         5.16072166800850   -0.09399264694734    0.44305772257828
S         4.86526890773889   -1.47552588969628   -0.52649160416709
C         5.96077071029219   -2.62918175177226    0.17277508111260
N         6.23930658918125   -3.70322904313547   -0.47784484255475
C         6.53486127298738   -2.38413023924876    1.51130349712691
C         6.60161796313863   -1.21780655828926    2.17993616396948
C         7.34914827035379   -1.17380306178823    3.48564582464537
H         0.25189993570748    2.45606792421492   -0.56610870490444
H         0.74489174997559    1.85447407834101    1.15167836234031
H         0.56673551939421    0.72162569658104   -0.11521083363429
H         1.91624388907853    3.48240719623097   -1.27365009990644
H         4.44115087084949    1.68293961096171   -0.73050330976003
H         4.47146050808071    2.81817444942107    1.69973886003079
H         5.81607048246706    2.79508032114117    0.64468282644414
H         6.87270771830910    1.61764338565659    2.59782543174090
H         5.85648328396677   -3.86314462385065   -1.41823407048533
H         6.89792262416768   -3.31150843128297    1.94349065392297
H         6.59198326632761   -1.28385894563086    4.27156019853458
H         7.88810420298701   -0.22426155867392    3.55472507092820
H         7.97088311814230   -2.07446802386319    3.47514020673682
