30
 energy: -48.313547409247 gnorm: 0.129527750480 xtb: 6.4.1 (79825abcba525fcdf90b791dcacef51065a7a4e7)
C         1.06635035258058    1.79289039148938   -0.78665977338261
C         2.55824647516643    1.80767706528044   -0.70961864544595
N         3.40678015873172    2.06701291761982   -1.64227148085726
O         3.00116288011480    1.54186440065545    0.53394616582162
C         4.42625436688628    1.49479708062222    0.72168953485764
C         4.70845925922365    2.14282485871602    2.07757055521695
C         5.84493085891259    1.21076671118009    2.54616563856798
C         5.80394646249789    1.06341132135834    4.00740003764468
N         5.89632656068481    0.80982507134522    5.13739118378065
C         5.69379621869964   -0.10049747645131    1.81269281921860
C         4.89035167369208    0.07290511844094    0.75532138239071
S         4.49291891712501   -1.09693087703764   -0.43189522555766
C         5.27718912356578   -2.51961646432270    0.18528056155545
N         5.35174544881150   -3.60341458389933   -0.50340597087838
C         6.15932245310169   -2.42034401835974    1.36565099940120
C         6.42703970668059   -1.32549987668006    2.10150481822317
C         7.56951989322698   -1.30361094839603    3.08123718649275
H         0.74133275871310    2.04037834152775   -1.80031747550675
H         0.49784704983923    2.50719997716245   -0.18481642434348
H         0.80112842194223    0.74747136771506   -0.60528330541280
H         2.94447031002808    2.38526267812526   -2.50100858081422
H         4.80893408146455    2.01214923434263   -0.16626393157518
H         3.82547847612616    1.87170885461645    2.66947453602561
H         4.85778409444941    3.22957804850910    2.03749004972592
H         6.80425414112010    1.68249414724410    2.29714160852972
H         4.82106952792343   -3.53645662870203   -1.38110653992917
H         6.54190131518954   -3.37015527235992    1.72637473132627
H         8.21458538197288   -0.43697792947929    2.89173712834518
H         8.21252769609485   -2.17783192977488    2.94284227697453
H         7.24618933165089   -1.19049943664018    4.12072027625935
