30
 energy: -48.311026407832 gnorm: 0.134168422657 xtb: 6.4.1 (79825abcba525fcdf90b791dcacef51065a7a4e7)
C         1.06349120843965    1.45183603673309   -0.02952835254358
C         2.50895876634794    1.54227812832785   -0.39606864888183
N         3.05218941936225    1.26404537363660   -1.52946743094804
O         3.23522749942872    1.73599429419737    0.72120147415801
C         4.65080089548169    1.57409947519662    0.52552145114643
C         5.44747563063711    2.31391675571393    1.60068315933937
C         6.02298666099431    1.26928772316319    2.57916089945942
C         4.97119525198856    1.19428220683730    3.60224853129057
N         4.23261064638938    1.23279050330186    4.49820051036449
C         5.97921283870449    0.05795408930695    1.67860968518371
C         5.06134958049109    0.14698346725559    0.70741107372660
S         4.56119174921227   -1.01549640254629   -0.44776640663138
C         5.52823654008795   -2.38026452982207    0.02367001858535
N         5.39668206944321   -3.54125608304627   -0.51415724802804
C         6.44443740810947   -2.29179802496750    1.17867574351645
C         6.62186067125649   -1.21659714318371    1.96880300252186
C         7.40332939250534   -1.31642043977541    3.25136198638193
H         0.55616214031025    0.60047130940052   -0.49016267202776
H         0.59689530002354    2.39215276024274   -0.33570203588250
H         0.95930759494628    1.33745672115048    1.05315543211418
H         2.28532050517277    1.18355780682457   -2.20613317807367
H         4.83462505706858    1.94875367416432   -0.48857976555584
H         5.02323342307022    3.16317559412660    2.15048970985106
H         6.23305696084187    2.80044358360405    1.00815427591172
H         6.99870455849213    1.51078497042884    3.02017626522554
H         4.70713342021766   -3.48895836804106   -1.27458225945123
H         6.92529387160765   -3.24248651326634    1.38747723505302
H         7.33577636549129   -2.32080859137604    3.68692319865232
H         6.99169400162518   -0.68143385144963    4.04143973183601
H         8.45967543531042   -1.04580349592838    3.15775929177363
