30
 energy: -48.309405665137 gnorm: 0.128734853162 xtb: 6.4.1 (79825abcba525fcdf90b791dcacef51065a7a4e7)
C         1.07750526540793    1.81515969876623    0.60736435688407
C         2.39990010570214    1.64753801863042   -0.06723395143905
N         2.61048957468292    1.40461682516377   -1.31372790422045
O         3.41496065190196    1.79581539133303    0.80509090660024
C         4.78282478882978    1.58547351894430    0.41387147505600
C         5.60567083547117    2.27996185478823    1.49950644223146
C         5.89995683668958    1.17274011280360    2.53262657676533
C         4.91227364698497    1.16929863914541    3.62031650765337
N         3.98547521260325    1.30461955464057    4.30766865693909
C         5.75551014184749   -0.09853834032213    1.73061405975872
C         5.20954655629250    0.15661844644108    0.53460205068525
S         5.03311222396017   -0.96270623622851   -0.75067438163480
C         5.67285537521365   -2.46262436275467   -0.14984637326029
N         5.79986826193324   -3.42369251441419   -0.99523496457999
C         6.16952613446312   -2.46296122666284    1.24105499936259
C         6.34752343182256   -1.39329552456367    2.03853183290527
C         7.02353437704139   -1.60519783514564    3.36658387426819
H         0.40078767472270    2.53928889115243    0.14684413695636
H         1.30840911946634    2.05194921073066    1.64960412947798
H         0.54795456368337    0.86122615970841    0.68304716487649
H         1.87392754205325    1.60084556092360   -2.00032339464090
H         4.89070293050914    1.93504317524191   -0.61991850882991
H         5.06026277285979    3.14218087320722    1.90276526847076
H         6.58752926575047    2.53879717479864    1.08249905690638
H         6.89911101835650    1.15309640831582    2.98665955915098
H         5.31804678338290   -3.35603234670844   -1.90062369261397
H         6.41542074596049   -3.48676951540410    1.50559617848172
H         6.92612364985278   -2.64227267688480    3.71018170084216
H         6.65595303134631   -0.93523536786655    4.14946876606371
H         8.06338132249484   -1.43708370896416    3.06940052578044
