30
 energy: -48.308702181451 gnorm: 0.129800192174 xtb: 6.4.1 (79825abcba525fcdf90b791dcacef51065a7a4e7)
C         0.92721444542475    1.62229683115310    0.37692049353914
C         2.34472210546706    2.04291192060263    0.16323145610009
N         2.84591855918553    3.17547991784981   -0.18776378035386
O         3.16211907391544    1.02939449168527    0.50663992282866
C         4.53223870697152    1.27989434123894    0.14835139183366
C         5.30933356095592    2.18990858309343    1.10018678614741
C         5.70904503570708    1.24909223067665    2.25559873843518
C         4.59127886382573    1.05423553128165    3.18899520661350
N         3.68357597188669    0.80286762173847    3.86914938007927
C         5.90913725152139   -0.06162045604306    1.53294170474797
C         5.17848101928952   -0.04367760259053    0.41069152417176
S         5.11191044474376   -1.36295611297640   -0.68064934627667
C         5.83904526671893   -2.71236936440841    0.13811728496810
N         5.91295516588552   -3.86347922381861   -0.43104836865231
C         6.50349350949613   -2.33673280834164    1.40251210986611
C         6.62750064104141   -1.19362275302065    2.10233970623516
C         7.36528553765713   -1.09061702668347    3.41026893122144
H         0.25606126624513    2.10542721582174   -0.33759129833623
H         0.72046620466913    2.06005993149576    1.35736337323069
H         0.84696427659598    0.53802418229715    0.25837191872651
H         2.07176252390983    3.79945778038975   -0.44030441780167
H         4.64222242466548    1.60130119976798   -0.89431805989557
H         4.71452754374816    3.09389961907123    1.28050672082110
H         6.21863798300005    2.45474622959423    0.54524233041660
H         6.60286718211728    1.57024035966983    2.80585935669248
H         5.55494395089423   -3.95129168990737   -1.39051463843247
H         6.95890531549696   -3.27058604186749    1.71738959302510
H         7.04622364839317   -0.14725189277130    3.86998001391102
H         8.42223606392062   -1.19771480882184    3.14900247804050
H         7.16783023281768   -1.90835629515739    4.11039452539193
