30
 energy: -48.309462886981 gnorm: 0.125968116780 xtb: 6.4.1 (79825abcba525fcdf90b791dcacef51065a7a4e7)
C         0.92137319105109    1.43285081968037   -0.37397447770210
C         2.40196358866214    1.59220821825743   -0.49382986550887
N         3.05267168869595    1.51487411605781   -1.60184801107607
O         2.99357002710933    1.57796877608525    0.71575014874461
C         4.43006001941221    1.53313782388537    0.76899796378791
C         4.95563693509206    2.17176624378308    2.05504446053858
C         5.92369457461437    1.17346184689985    2.72297723123474
C         5.45486865438696    1.01464916862895    4.10629935194120
N         4.93621314772011    0.85912459513963    5.13417513769407
C         5.79970291544184   -0.03622131316273    1.82769484565335
C         5.07045857601771    0.18172681552583    0.72572966179142
S         4.87882347932246   -0.74989372585981   -0.69951119238128
C         5.53943910899970   -2.24867336979087   -0.11876463489758
N         5.36545424019482   -3.36879923302533   -0.72664082996240
C         6.43181371682165   -2.28452682788691    1.05753069349002
C         6.58773023808113   -1.25818380059526    1.91435453987277
C         7.45118800535498   -1.37658457053052    3.14156176608067
H         0.49071437719563    2.25251665872590   -0.95455139508731
H         0.66227693075176    1.30193838760556    0.68024593064116
H         0.63219268763293    0.49221893946081   -0.85118232852633
H         2.44758059809352    1.54022788439594   -2.42989672410280
H         4.78126720162839    2.09964571750302   -0.10179517893140
H         4.06196278412048    2.34890647976426    2.66617220647049
H         5.45213626158564    3.12054640151800    1.81371172756091
H         6.97570965601271    1.47922793721570    2.79089089135899
H         4.86523629262912   -3.30681269236284   -1.62240768738481
H         7.02778767155684   -3.18163178340096    1.19408603513114
H         6.73436806046101   -1.62592196130170    3.93344091422083
H         7.96596136428519   -0.41660899259059    3.24319736375634
H         8.08214311347858   -2.26669648636026    3.22792375242278
