30
 energy: -48.310824538448 gnorm: 0.124649444719 xtb: 6.4.1 (79825abcba525fcdf90b791dcacef51065a7a4e7)
C         0.93700236202210    1.85155761859286    0.68393929844287
C         2.31056285746602    1.94425386455337    0.10372640166945
N         2.82005211455816    2.81800595932997   -0.69256738364793
O         3.09404159775688    0.89549175623851    0.41923215165632
C         4.44229756154820    1.14679470862156   -0.01366668329040
C         5.14214454267339    2.12021821982750    0.93536119768947
C         5.69289163180477    1.26393022216486    2.09438237128834
C         4.82313066210364    1.37406454497401    3.27335895063091
N         4.25102530029672    1.36314003456332    4.28444562017667
C         5.73034963318035   -0.11272270810810    1.47497805159570
C         5.09998499905000   -0.16120987169572    0.29433598748757
S         5.09243866926144   -1.54712387241460   -0.71320458491004
C         6.15971817839127   -2.65225599142715    0.09896383424369
N         6.59680975622801   -3.69553361394450   -0.51339959894576
C         6.61257016520002   -2.39273415972787    1.48057964690415
C         6.37213810995972   -1.24141326380931    2.13517104425904
C         6.79510417212593   -1.12765687945375    3.57523180991235
H         0.45344313938220    2.83114985160077    0.71489404672438
H         1.15049745585480    1.56671603697290    1.71783229432094
H         0.34692252582769    1.04029730804471    0.24827483054952
H         2.30876514739402    3.69333822704993   -0.85011665664680
H         4.31228958407842    1.52491863306058   -1.03478306825495
H         4.48029766405890    2.91886915779081    1.29260719404955
H         5.84289500914192    2.75315175000835    0.37564624299610
H         6.68612515056754    1.49081966592909    2.50285433225556
H         6.18262414939932   -3.80866610079871   -1.44726785761399
H         7.01858299118562   -3.21757775619056    2.05800177938378
H         6.13620859672389   -0.53514870258563    4.22165525241008
H         7.79059112963300   -0.69953014873907    3.72552409328717
H         6.81028334915715   -2.13610748127270    4.00027178144637
