30
 energy: -48.309692552426 gnorm: 0.125199255506 xtb: 6.4.1 (79825abcba525fcdf90b791dcacef51065a7a4e7)
C         0.91641411731386    1.53651022692806    0.43892845133170
C         2.32242325651253    1.97440608450730    0.18734637652236
N         2.73971137275068    3.08613868213898   -0.30967179998022
O         3.24132884416733    1.00346613239185    0.34912673730645
C         4.63012250416568    1.28251422254627    0.10066549875028
C         5.22211801117509    2.19572722150695    1.17471218335773
C         5.70332854159315    1.22665413244562    2.27435540130439
C         4.76093093043310    1.13723542477449    3.39796135049956
N         3.92308879733329    1.23254523891814    4.19712131839491
C         5.86335418465630   -0.08534949856464    1.54409785919949
C         5.28920732195026   -0.03997953028841    0.33499782749705
S         5.03773972488468   -1.34685803900803   -0.74425419882697
C         5.94958379436522   -2.61492108120787    0.01770150411038
N         6.09457228734013   -3.79271964893345   -0.47851922203396
C         6.50184659948290   -2.40383796809085    1.37111877270944
C         6.60243804403065   -1.23912188389499    2.03831803164416
C         7.16810876890354   -1.20951063208977    3.43286290610965
H         0.43323163203917    2.15572155806312   -0.32100619892086
H         0.39998637790034    1.71041706837573    1.38693077546102
H         0.86521573423039    0.45725456436732    0.26943812335569
H         1.97419543520322    3.76088979758529   -0.41521323604667
H         4.61380729883764    1.63691561315563   -0.93697212407261
H         4.43935009222175    2.93125112079494    1.39784498083557
H         6.03781764847983    2.78476684529898    0.73584628548945
H         6.62795766035908    1.62226065990317    2.71412506935327
H         5.77000292433819   -3.95355200978674   -1.44041644410849
H         6.90963425673634   -3.38657309329279    1.58692078641516
H         6.67365320671695   -0.49559308735065    4.10286885760906
H         8.24594672520351   -1.03902483247704    3.35492420740443
H         7.12828173839959   -2.18287833246599    3.93169262338909
