30
 energy: -48.304075344164 gnorm: 0.129916454297 xtb: 6.4.1 (79825abcba525fcdf90b791dcacef51065a7a4e7)
C         1.10034736010205    1.36317507637726   -0.96869235091147
C         2.53911019298689    1.68880552839519   -0.73239943471554
N         3.44054443043524    2.09148936706040   -1.55845503259211
O         2.92972611220638    1.55385992434695    0.54919864740549
C         4.35924529349009    1.43741332186295    0.65532945596592
C         4.68752450589380    2.14562624493127    1.97011467175205
C         5.93780502651943    1.35906687346524    2.41509154498624
C         6.16746915922421    1.33171344734202    3.86598970760659
N         5.97460348311918    1.20953385042373    5.00510999893142
C         5.71182875246265   -0.03295255559980    1.87522632807992
C         4.80647556084709    0.02919719873979    0.89029031361768
S         4.17948242147237   -1.21794984791166   -0.10341797999364
C         5.41887739555204   -2.41917222111318    0.09902925857290
N         5.44535920792830   -3.49071289389480   -0.61200198798900
C         6.35226535960615   -2.23315940925322    1.22839842710157
C         6.52519131723786   -1.22055876415082    2.09821081455408
C         7.45882554121001   -1.33244391577606    3.27355095618221
H         0.91993745257537    1.45954357398909   -2.04226304585178
H         0.38768151655144    2.09317147600121   -0.57516692777555
H         0.92328729778980    0.37126698993673   -0.54335823126667
H         3.09835011985131    2.26283046327958   -2.51028904950669
H         4.76846661015728    1.86048720582927   -0.26992984494588
H         3.82260718210241    1.97783293467262    2.62377566949212
H         4.92665571113569    3.21540692128013    1.91247418070769
H         6.89531888595072    1.74329492894424    2.04042247900303
H         4.62012824284085   -3.58879501261322   -1.21684274331641
H         6.93491315562329   -3.13264699938423    1.40181477284489
H         7.67176211846871   -2.40562146566921    3.35114288520452
H         7.08977810175133   -0.79843036195056    4.15418028620048
H         8.41639189009085   -0.85545223503979    3.04245014207392
