30
 energy: -48.313705727115 gnorm: 0.128125379601 xtb: 6.4.1 (79825abcba525fcdf90b791dcacef51065a7a4e7)
C         0.87024781885717    1.62858763289839    0.17323370092613
C         2.27413659349022    2.10686814851905   -0.00635497885688
N         2.92100060834296    3.14278513840100   -0.41323181193875
O         3.08336115169987    1.09529316994681    0.36128133083003
C         4.50094130829349    1.33292017207634    0.31281858763651
C         4.96498913079139    2.20498731517675    1.47993107787054
C         5.61190874172758    1.17787741685526    2.43199297255570
C         4.81264630244105    0.81377969732961    3.60979256294284
N         4.38156367497913    0.33590847158258    4.57701901008110
C         5.83551962032992   -0.07282137248044    1.61591158316512
C         5.25618644541802    0.04543702663160    0.41424012188158
S         5.11585814844880   -1.15533528649732   -0.80001125272935
C         5.89813484086861   -2.53522163894429   -0.09009789953636
N         5.98725098497170   -3.64963504412321   -0.72618542359380
C         6.47114642395886   -2.36344469419194    1.26024991930920
C         6.59842080169211   -1.25053721031514    2.00662482110934
C         7.32831957208648   -1.27082289231059    3.32285129368188
H         0.48401551836029    1.19979371287545   -0.75485522045045
H         0.17536010203728    2.36263729906586    0.59030894417202
H         0.81938782247940    0.77126498639738    0.85039850674774
H         2.25956273955761    3.89344631370935   -0.64005875208556
H         4.66591575881992    1.75255001228237   -0.68680767631353
H         4.07307279321363    2.68851009697767    1.89730414675259
H         5.63927130876018    3.00828022654621    1.15589259086147
H         6.55299545354622    1.62142155006357    2.78194353051036
H         5.67614539640402   -3.71849126158769   -1.70339100438370
H         6.99680463443220   -3.28165528559827    1.50356549856299
H         6.63758487842909   -1.52673575281476    4.13554236856976
H         7.76622301288753   -0.29872056831219    3.56806998133783
H         8.03713075924715   -2.10468857799987    3.31204727672934
