30
 energy: -48.306648300109 gnorm: 0.131840365252 xtb: 6.4.1 (79825abcba525fcdf90b791dcacef51065a7a4e7)
C         0.79661199822139    1.84463231371086   -0.00633788185183
C         2.25751381376692    1.97937836459942   -0.28832622362188
N         2.85694133802808    2.80360922928222   -1.07473320913876
O         2.99982824382212    1.26625959867094    0.57984178646161
C         4.43092650312788    1.25720161643717    0.43762907224210
C         5.07837762803683    2.11584092255232    1.52461510283221
C         5.81857447138331    1.14312088318016    2.46578774022514
C         5.21700782464350    1.09198325253807    3.80522866694055
N         4.66166852482138    1.21822589887209    4.81783974881675
C         5.76640635332110   -0.16646220664100    1.71578191695791
C         5.04547506075510   -0.09840138270112    0.58917104282856
S         4.84701657305890   -1.31955792496631   -0.59630080483400
C         5.79661004189522   -2.66643013043670   -0.04473246166229
N         6.15384849293205   -3.64200879320099   -0.80308147073369
C         6.44095920721451   -2.40045575101487    1.25732767466151
C         6.53566698730118   -1.34588961893718    2.08844621608477
C         7.34367140477264   -1.34890006446616    3.35838150440229
H         0.57025682770430    0.92670851180361    0.54190284317448
H         0.22607521747982    1.81041336033670   -0.93852158411451
H         0.59064463133044    2.72932162105193    0.60279536022407
H         2.22509516603084    3.24424064197038   -1.75227072735813
H         4.55273877159286    1.59294716531379   -0.59919064950149
H         4.34337181545140    2.75582603475639    2.02829637595838
H         5.68272732501034    2.86145622606595    0.99192742754466
H         6.84552465832435    1.51067522142662    2.58874346609223
H         5.90904614618844   -3.57594645900677   -1.79915686403993
H         7.01297014293214   -3.28228827518491    1.52899769300924
H         7.13657349007218   -2.36684816633261    3.71046770914542
H         7.09494725737324   -0.51266152189508    4.01846934254665
H         8.42691943547446   -1.38516107925159    3.20632608315738
