30
 energy: -48.312146656386 gnorm: 0.129924867640 xtb: 6.4.1 (79825abcba525fcdf90b791dcacef51065a7a4e7)
C         0.90609958431961    1.91605091110486    0.63642228955039
C         2.27042680127760    1.90886951948424    0.02776171437358
N         2.63847102753372    2.50648974918015   -1.05135798144709
O         3.14042926353138    1.09232225251909    0.65196603456804
C         4.49850341834822    1.26355629629450    0.21076069955819
C         5.29655915882152    2.18027102656536    1.13851826310161
C         5.78483682966830    1.29031854376344    2.30017697166190
C         4.71267383331368    1.10488969299621    3.28743681110676
N         4.10811477683377    0.82893459740637    4.24036766416197
C         5.82843379400240   -0.06379342315941    1.63330521830694
C         5.24456467386163   -0.01474422336555    0.42901414465783
S         5.06534727197529   -1.24765104192036   -0.74732519495255
C         5.95500976979210   -2.52844645093690    0.01954098960773
N         6.23447883833101   -3.66657740140074   -0.51057326591627
C         6.58746290655388   -2.32548992464279    1.33866959452591
C         6.52407229463967   -1.24148412351281    2.13412551260851
C         7.03175557521904   -1.30466364550038    3.54971078180551
H         1.01060118878409    2.65888029864876    1.43120060771704
H         0.83110253846284    0.92069255022617    1.08283777277412
H         0.13010326592831    2.20795330651097   -0.07685447035315
H         1.88258992819150    2.95622733670973   -1.57939451357390
H         4.52993020426090    1.62097011972237   -0.82549510420612
H         4.65914304909859    3.01049582553363    1.46705557072705
H         6.19376093300989    2.56776362535909    0.63870297345116
H         6.70923398033281    1.60582249288249    2.80096442084533
H         6.01003616121390   -3.78411001186848   -1.50670084651098
H         7.04553726226065   -3.26344903928716    1.63704887995621
H         6.11876893725044   -1.46188847379876    4.13691458260397
H         7.49146083576528   -0.35580868930115    3.84163518419968
H         7.77499996783476   -2.10718369571749    3.51214335128992
