30
 energy: -48.302968850157 gnorm: 0.134585958964 xtb: 6.4.1 (79825abcba525fcdf90b791dcacef51065a7a4e7)
C         0.92880663573265    1.86609007322552    0.72308496657080
C         2.19572815069650    1.98140700261563   -0.06019014385495
N         2.43483310984846    2.66093485697797   -1.12704370306565
O         3.13791185303640    1.20557306011732    0.50871785475826
C         4.54321457393385    1.25852744395887    0.20760536053692
C         5.26624345395987    2.20243995476960    1.16898528111604
C         5.84893588954377    1.30189757639519    2.27775685451234
C         4.83366854702834    1.06774974967182    3.31361705332929
N         4.05590163077983    0.77811564732714    4.12658124990429
C         5.83520588097324   -0.06924288712673    1.64528302479773
C         5.18343032753560   -0.06689543255323    0.47532188878006
S         5.14014387861486   -1.32877344690485   -0.68301419273138
C         6.10188316282982   -2.57859315061760    0.04707363392601
N         6.25527334701580   -3.64660719493030   -0.65312889996314
C         6.63938006271104   -2.40146026087548    1.41126189237803
C         6.44962143114824   -1.29070193157400    2.14749870229033
C         6.94910287259893   -1.25291986624321    3.56690224597522
H         1.20851873637603    2.54284231203339    1.53435323731849
H         0.94272871748041    0.84173451417514    1.10538258717875
H         0.14126228558426    2.19405873386306    0.03872286612205
H         1.61781027237788    3.14726287553550   -1.51227279520201
H         4.76872869820353    1.59499323743703   -0.81145916968993
H         4.58442285790299    2.99594385982464    1.49910873981967
H         6.15364021420477    2.64072327652579    0.69425211636901
H         6.85849208522268    1.57719841211110    2.60918804640485
H         5.74157320379311   -3.59493243549259   -1.54189234992981
H         6.85519085220127   -3.34220549885891    1.90830686532929
H         6.15576253550735   -1.31394378067167    4.32185902204519
H         7.54284494537263   -0.34368628986796    3.69971476593212
H         7.64504073752647   -2.09755508073186    3.57802939067822
