30
 energy: -48.310852601984 gnorm: 0.125901258207 xtb: 6.4.1 (79825abcba525fcdf90b791dcacef51065a7a4e7)
C         0.90215601385311    1.48052857514953   -0.42899860936144
C         2.32554869935650    1.89151775334959   -0.62122030145928
N         2.87985266610595    2.65306495227744   -1.49865906344886
O         2.96261696515410    1.36779290343201    0.44327068282510
C         4.39798433026154    1.33865443889512    0.52824195871264
C         4.82581147107867    2.10508055593940    1.78025948712504
C         5.98165152547191    1.29832131606807    2.40720027546912
C         5.66958096170127    1.18012676496612    3.83801868735039
N         5.18238949558440    1.10396971504401    4.88995245257498
C         5.89869731110313   -0.02540747855724    1.68532873938918
C         5.01677840622618   -0.01527080695655    0.67748834842650
S         4.66015758674939   -1.29420194697291   -0.40561324584029
C         5.76279641208041   -2.54859506106108    0.07470490465269
N         5.86779356029747   -3.67439595471529   -0.53849497369153
C         6.40877890231174   -2.35324968728572    1.38841545476437
C         6.56530741965976   -1.24146451144005    2.13089078322049
C         7.39758093852848   -1.23592870198832    3.38504618333085
H         0.26010521626577    1.87849096349101   -1.21879945089463
H         0.63209652407955    1.83614485067971    0.56912690535951
H         0.74707641221126    0.41441905277468   -0.61741791298975
H         2.25286127979164    2.91972655136337   -2.26561154276637
H         4.73978999204328    1.88745873224862   -0.35750129423970
H         3.98044209344239    2.08386333727445    2.47912264972627
H         5.10171726714355    3.13367052507124    1.51414762221292
H         6.92416859521384    1.83889860477070    2.25138414118411
H         5.17828433719421   -3.80383502236962   -1.28968146690021
H         7.00269362625099   -3.24659198547305    1.55525207245041
H         6.65251127465201   -1.29456497535593    4.18785720444935
H         7.89284275284157   -0.26073209947240    3.36092486868442
H         8.12079665000142   -2.05433001321496    3.45604119084627
