30
 energy: -48.311033067982 gnorm: 0.130308462271 xtb: 6.4.1 (79825abcba525fcdf90b791dcacef51065a7a4e7)
C         0.82757088113923    1.67429068058346   -0.66962504944760
C         2.19972971573927    2.10589355050292   -0.26613141203945
N         2.88475352832739    3.17465087475237   -0.47968694331620
O         2.79784590302808    1.20036084772473    0.53108393052332
C         4.22884418122872    1.31377942314546    0.61899748847906
C         4.58214541969397    1.91516040033495    1.97970028246349
C         5.68731790336633    1.03486264831710    2.59901529132411
C         5.42080761823290    0.66205080993470    3.99493179709435
N         5.19302526449817    0.53132032661946    5.12663175476858
C         5.85810230666410   -0.11186631268719    1.63150136753448
C         4.93181827468993   -0.00588545314904    0.67004835607880
S         4.73713472774190   -1.17726826885708   -0.56523013196053
C         5.98389313389488   -2.34827471578373   -0.25805369799962
N         6.34866740392881   -3.27263633427441   -1.07473079161486
C         6.68163949801479   -2.34738940636116    1.04365203917861
C         6.67205865891876   -1.29372835487204    1.88123406540027
C         7.41615713315774   -1.40521711768571    3.18488406784631
H         0.17605612741311    2.54642638087489   -0.57320666700344
H         0.59113570974923    0.73999964513210   -0.15305145619729
H         0.85677397314941    1.41173555482774   -1.73092284740324
H         2.52723191952456    3.85263155344333   -1.16156905274993
H         4.57650754245176    1.89492466696242   -0.24353295270842
H         3.69847323759497    2.04711009556080    2.61627079586878
H         4.97511151088582    2.93858085290019    1.92379785314451
H         6.62386307885914    1.59550788200820    2.71477777156013
H         5.67437218301187   -3.33808226004506   -1.84771292295801
H         7.23810497980278   -3.26318539845980    1.21770225034070
H         8.39964297627750   -0.92178456827480    3.23093955630955
H         7.62542394813919   -2.47446082201014    3.28387808479706
H         6.81595747626098   -1.14873154074311    4.06342688380456
