30
 energy: -48.314105376847 gnorm: 0.119921674144 xtb: 6.4.1 (79825abcba525fcdf90b791dcacef51065a7a4e7)
C         0.90855566934429    1.36862838289969   -0.51239747093273
C         2.33411512502475    1.81222010595467   -0.45841003103454
N         2.95912210059739    2.51399284808482   -1.33817540149248
O         3.01582075547240    1.20127204325307    0.52916510691258
C         4.44063962553450    1.39604826361939    0.51178516706367
C         5.01105465848405    2.24376117243760    1.64932745477231
C         5.91716835815967    1.27642092139489    2.43868937931896
C         5.36830965842339    1.14308666326262    3.79499886487302
N         5.10127195670456    1.13497888845453    4.92563815167443
C         5.83144270319577   -0.04846236159877    1.71926375053985
C         5.03386810885802    0.02918782497516    0.64619750294200
S         4.59258387679469   -1.26608500563778   -0.38505845766035
C         5.71804131763206   -2.49450060811054    0.10927002353042
N         5.69787270017107   -3.63145308130584   -0.49189422160770
C         6.54514565239872   -2.33689225624393    1.32267293673831
C         6.57875050358247   -1.23909828647692    2.10084783812204
C         7.43102963688783   -1.21462746203880    3.34126594393723
H         0.36470542026064    1.88942314912037   -1.30447598783676
H         0.33189563953087    1.65736307708954    0.37063429112620
H         0.87860711712456    0.31540057336603   -0.80557880775042
H         2.34367457643953    3.08451587347971   -1.92823517440545
H         4.64397899992358    1.85852047761502   -0.46152409630194
H         4.19303932910437    2.53412853955937    2.32018286842789
H         5.52698065918635    3.12750089779535    1.25213567029462
H         6.95232687576208    1.61938316963858    2.56384784136977
H         5.18028857074156   -3.52086576542581   -1.37299336786649
H         7.21330175695591   -3.19256230467709    1.32775233883208
H         6.78864002806091   -0.88962380434279    4.16878075402966
H         8.21341164441076   -0.48154864466054    3.12366916881440
H         7.88863840254337   -2.18486222078892    3.55829288664982
