30
 energy: -48.308464739622 gnorm: 0.144230870455 xtb: 6.4.1 (79825abcba525fcdf90b791dcacef51065a7a4e7)
C         1.04517821687174    1.43830147776920    0.42481714016103
C         2.43001046201474    1.59728706870702   -0.11265030588182
N         2.89745197497747    1.72064576340866   -1.30570808782429
O         3.29322163104644    1.65518414871434    0.91924075333044
C         4.68943924588630    1.66364254356236    0.57448943443676
C         5.50782979651299    2.24073128802603    1.72999730410534
C         5.85965356541901    1.06660051113234    2.66675683257841
C         4.68728357471743    0.88301690231398    3.53303911679862
N         3.82985394722573    0.85262943548230    4.31637244925526
C         5.75413976557221   -0.12246732566040    1.74197450277829
C         5.21010161099109    0.26108197714891    0.57984784821767
S         4.90032398494521   -0.80775416413779   -0.72306406250481
C         5.67287406759351   -2.27707211929328   -0.20897157027563
N         5.68280644851991   -3.32997287108164   -0.94773234975098
C         6.45065039507170   -2.31381891552621    1.04601936044487
C         6.53867885114093   -1.33011083101230    1.96057195180906
C         7.27335767811725   -1.54261257713287    3.25699226564599
H         0.73785896104871    0.43572672143569    0.11694152919790
H         0.45450219255355    2.11807741001004   -0.19538937629816
H         0.94143989965922    1.69022300710333    1.48402199988459
H         2.08138892364623    1.72450598374344   -1.92737432316238
H         4.86237809600095    2.17948278371837   -0.37764467908349
H         4.89296864148006    3.06279684627421    2.11686065430047
H         6.45165583773849    2.73470412808863    1.46519531106361
H         6.78940997021266    1.31480943442206    3.19475896602389
H         4.98804545896633   -3.18216897319705   -1.69064537578000
H         7.07400128466587   -3.20182398539957    1.08488156142449
H         6.77842312938963   -0.93143537099649    4.02156715296274
H         8.30465924362116   -1.19731417256405    3.13841486237067
H         7.30385792978936   -2.59483400646910    3.55659493257370
