30
 energy: -48.306661778371 gnorm: 0.145467740826 xtb: 6.4.1 (79825abcba525fcdf90b791dcacef51065a7a4e7)
C         0.93031346069210    1.84057778611218    0.20227311584203
C         2.39372634368833    1.75855252354292   -0.08686807893305
N         3.01404619151296    1.74988634924246   -1.21480159147582
O         3.08013008012665    1.72449427110035    1.07113655457689
C         4.51714040192516    1.68030931969888    1.03374982449635
C         5.04398261880733    2.13676461186486    2.39466087755938
C         5.73674530550252    0.84651882422232    2.87966317713058
C         4.73581829883283    0.12044697083952    3.67311401469533
N         3.95122286856358   -0.55827443410561    4.19605511259250
C         5.96585872949348   -0.06768087168566    1.69983943905973
C         5.18571979924397    0.38203892750977    0.70849609734717
S         4.93304557471651   -0.47181180901749   -0.75541893888485
C         5.86065619348787   -1.92936932333144   -0.56810965328047
N         6.02044010398522   -2.91619793592061   -1.37749500258821
C         6.48939989569685   -2.23839548557414    0.73207225469383
C         6.58430789017765   -1.38468778777885    1.76841821674761
C         7.42538928279210   -1.74498754219870    2.96356758851009
H         0.58666347766182    2.87487133966148    0.28308274830079
H         0.82229526022054    1.39416472417083    1.19459214529862
H         0.28619480680136    1.30866107992547   -0.50364246840356
H         2.46973721388274    1.95810474178437   -2.05908563985061
H         4.77480093793248    2.41582601676785    0.26226769269921
H         4.27501148491414    2.47496401971030    3.10022013650239
H         5.72053004853592    3.00004703099054    2.35034455646790
H         6.49528019174532    1.15203198980412    3.61187047113970
H         5.60212369277270   -2.72426822769774   -2.29653416092281
H         7.13993088397010   -3.10700135514699    0.70104022239046
H         8.25780956539224   -1.11183773852320    3.29412831912762
H         7.82584504397445   -2.75955181503592    2.87889719720153
H         6.72993379041442   -1.81032338548454    3.80614392925377
