30
 energy: -48.308773634398 gnorm: 0.137352089791 xtb: 6.4.1 (79825abcba525fcdf90b791dcacef51065a7a4e7)
C         0.95690781527367    1.75236165424390    0.50157201349552
C         2.30538124846383    1.56731914563544   -0.11429053694074
N         2.75197614982100    1.45561548853451   -1.31644738438247
O         3.21064768003354    1.59299649995389    0.88226257458724
C         4.60224135890014    1.55991454124348    0.52070864103043
C         5.36665896789502    2.27923327949555    1.63257158148150
C         5.88188272074458    1.15265500306883    2.55194489219692
C         4.95440917610114    0.99157907820925    3.67997265220213
N         4.28496932021832    0.79131200021720    4.60812317978180
C         5.93106707148513   -0.05890909125183    1.65198314364006
C         5.17605764712779    0.17918154970705    0.57175189348391
S         4.90083837054008   -0.86973563979784   -0.75489025772336
C         5.89214773000139   -2.22978683056211   -0.32177760717076
N         6.20143115594988   -3.20164146856749   -1.10555597330241
C         6.44922285791298   -2.32563374742290    1.04268908556942
C         6.47971567604031   -1.36616943895031    1.98626502200955
C         6.87748903281314   -1.61460618719089    3.41653464154015
H         0.25478707953810    0.99449028297369    0.14513672757774
H         0.50717891455720    2.60082839752142   -0.02139806763102
H         0.98746959555838    1.86442329078785    1.58906876968102
H         1.86515163818050    1.53145517634196   -1.82657809336006
H         4.73869964014746    2.05609249496117   -0.44766366957212
H         4.73670568370512    3.00697487280995    2.15893675074697
H         6.16122044910492    2.88181846765515    1.17376880572955
H         6.92469005471238    1.35507203751139    2.82838853864511
H         5.69030274215261   -3.16876485781247   -1.99669315345472
H         6.88666035572939   -3.30392563147900    1.21653693093240
H         6.74718483309631   -0.75141569920484    4.08060959739459
H         7.92652384154240   -1.89902128001665    3.54106793696467
H         6.39857002539122   -2.54483438823078    3.73774182011079
