30
 energy: -48.314487813851 gnorm: 0.122971148561 xtb: 6.4.1 (79825abcba525fcdf90b791dcacef51065a7a4e7)
C         0.87334996427705    1.64798837041188    0.17218092070484
C         2.27821698170670    2.09009116648722   -0.07842200016946
N         2.63829385265580    3.22204065978315   -0.57454781045782
O         3.13699313899509    1.14505323595336    0.34900239133060
C         4.56365114501774    1.27175101170059    0.21883578323989
C         5.21724832630161    2.19384867142612    1.24866085709195
C         5.86202441318129    1.23878499718244    2.27433075706738
C         4.89861206432559    0.97746741283678    3.35236100355606
N         4.13823280611581    0.54673417410768    4.11787546468608
C         5.94903375691452   -0.10694793737140    1.59486747817677
C         5.17275605048863   -0.06457455907088    0.50435213974208
S         4.86801837352425   -1.34291114953002   -0.59516734376059
C         5.84819579822724   -2.58565845430647    0.12236417885956
N         6.06886710755283   -3.71252710363570   -0.45723695250400
C         6.57097461207261   -2.38527111479089    1.39465522705522
C         6.69503237969034   -1.24903122888244    2.10557428953175
C         7.35493537121027   -1.13343674627162    3.45345477479243
H         0.14706460334637    2.16160362738432   -0.46271876079080
H         0.52687144390236    1.75478686853618    1.20377983837996
H         0.90714997230498    0.56280334635368    0.04037781953043
H         1.88000501988644    3.73950201171885   -1.03245010594497
H         4.80079247122620    1.70963129854964   -0.75819200168878
H         4.49549364608634    2.79063358640508    1.81999898506767
H         5.95093679490585    2.90350809716044    0.84490148674000
H         6.77974222234188    1.58561009858537    2.76661864141743
H         5.48604238669414   -3.93344926623707   -1.27452964868791
H         7.05915329796905   -3.28174549533625    1.76431043145812
H         6.66963664649606   -0.72144529720331    4.20425520940954
H         8.21093118140952   -0.49184191225944    3.22432208314111
H         7.61147110876657   -2.13532853929852    3.81159477274094
