30
 energy: -48.311146425532 gnorm: 0.125028999540 xtb: 6.4.1 (79825abcba525fcdf90b791dcacef51065a7a4e7)
C         0.99073128517549    1.65071392156168   -0.79771065463880
C         2.48061502909856    1.64150467260208   -0.68784873478214
N         3.22930474138367    1.87528702120630   -1.70859127667022
O         3.01774236667846    1.51114397177059    0.54007026350365
C         4.45362698645921    1.45466434437870    0.59832887157779
C         4.78020611170786    2.13242711982347    1.92948500319943
C         5.89896543309570    1.25956388860165    2.53476907627479
C         5.75620172794534    1.28839278676670    3.99674948601701
N         5.86741850653588    1.24567609911026    5.15239916107311
C         5.73143362351947   -0.06397550601237    1.82736933451403
C         4.93523530942961    0.04703532566753    0.75621537708632
S         4.37797233476895   -1.15724820727853   -0.32781021616909
C         5.37256376807437   -2.48672877595815    0.18530701268958
N         5.51279482070642   -3.55175571567475   -0.52216667395067
C         6.23465601365901   -2.34659594773489    1.37629330699056
C         6.42157255962788   -1.29337887469429    2.19338147621832
C         7.57911407783278   -1.24835622010613    3.15446743463913
H         0.74979973014011    1.35669055628108   -1.82235249718499
H         0.47643359458408    2.59401361689330   -0.59440503094341
H         0.68533600373474    0.88285933723462   -0.08127915726691
H         2.73256198517806    1.96655794041654   -2.60154086459661
H         4.86716087160669    1.82889569064247   -0.34586337727359
H         3.93761379507352    2.02039893595611    2.62302458353663
H         5.06087673158536    3.19166149140192    1.86480575804839
H         6.91745135306897    1.65630217775837    2.43414073283867
H         4.98676188566727   -3.56057641877159   -1.40515599158460
H         6.70993034118136   -3.27933685542571    1.66393602653604
H         7.87347986748147   -2.29773576262573    3.27785263465628
H         7.36928524102401   -0.71032018432495    4.08364104162962
H         8.33556788034291   -0.67344582922525    2.61122010585744
