30
 energy: -48.312625516687 gnorm: 0.129691746184 xtb: 6.4.1 (79825abcba525fcdf90b791dcacef51065a7a4e7)
C         0.91083333421839    2.05488375241238   -0.34374888241150
C         2.38425654617474    2.26338784882549   -0.21161968169049
N         3.13175685355001    3.27645034506306   -0.48004750533182
O         3.04811601027972    1.26550799931322    0.40222981631755
C         4.48617421303241    1.26452623878217    0.38388899737889
C         5.16883067932102    2.06339774407881    1.49464438160417
C         5.80041541391054    1.02389545333629    2.44354757974483
C         4.95734740721882    0.83227472533946    3.63145216039611
N         4.48851111389166    0.88162035674430    4.69327967626306
C         5.78742108770170   -0.24909050569390    1.63140473446537
C         5.01242062795699   -0.12653843918502    0.54605614672256
S         4.68980323965323   -1.41522015276793   -0.53614995402960
C         5.63790034331006   -2.69101172007971    0.16633697273078
N         5.65642919489311   -3.82608544359510   -0.43841964350770
C         6.55125455774364   -2.56960904466616    1.32060481999498
C         6.58963467256295   -1.40786222834442    1.99936001355354
C         7.55124110572390   -1.20075227213091    3.13867312467279
H         0.65331376688923    1.50576486132883   -1.25289176443727
H         0.35148041416229    2.98923984989582   -0.44250416436480
H         0.53683803565206    1.44742944605613    0.48526729223824
H         2.69797344299342    4.09051224332751   -0.92902177609197
H         4.80772246350465    1.63914529153084   -0.59530747515519
H         4.38155672227111    2.68327700995533    1.94125240304372
H         5.98789538239446    2.70838156702683    1.15103737334697
H         6.81536244736909    1.30872944963161    2.74947747504983
H         5.19230956256446   -4.03460462542885   -1.33148813297341
H         7.32750738371758   -3.32352075213595    1.40823130765632
H         8.20675844525882   -0.35321644622814    2.90404015958651
H         8.13299137329182   -2.09000464041489    3.39881040552160
H         7.04750006174054   -0.88032501786449    4.05596988270804
