30
 energy: -48.308297040520 gnorm: 0.128913303411 xtb: 6.4.1 (79825abcba525fcdf90b791dcacef51065a7a4e7)
C         1.18459461716433    2.14332684720755    0.81343759808589
C         2.60612943819505    2.25116126545938    0.36676264419813
N         3.20450704567660    3.25852287672302   -0.16640959142688
O         3.35804726478455    1.16089479938032    0.61012117114160
C         4.69455138443303    1.21582213159032    0.08183300728260
C         5.55915732875625    2.05751314295793    1.02098462510227
C         5.88004122204166    1.07457243951520    2.16586127654209
C         4.80231545535905    1.26226783071589    3.14661451246786
N         3.98655523315232    1.50939688523698    3.93603363280098
C         5.88870564156867   -0.30291345109062    1.54723750981946
C         5.23546872540637   -0.14486171532763    0.38882172327701
S         5.10821875889670   -1.27112704299716   -0.89620208937497
C         5.55031066089300   -2.74452598292512   -0.08770329938463
N         5.16540753798430   -3.89889896314069   -0.50452310072422
C         6.22621561582400   -2.66715103878458    1.22319494079708
C         6.41646242603220   -1.58336377679275    1.99846803316016
C         6.87911385352246   -1.70153290421862    3.42591516657128
H         0.73035499425600    3.13602044823463    0.86456917916382
H         1.16326578976530    1.86281063142851    1.87008576128949
H         0.60144490970620    1.56756202343285    0.08916394994133
H         2.60555008945916    4.06185632720618   -0.38629284506065
H         4.80784400934762    1.72303677955850   -0.88380483884176
H         5.12039479603394    2.97721795578997    1.42735855394621
H         6.50885045423319    2.32340098622681    0.53898516258870
H         6.82767504813554    1.34403749231314    2.64982368362335
H         4.68413201371071   -3.83797114119140   -1.41067996293384
H         6.52605354328672   -3.63071521823238    1.62353342011507
H         7.96914463411530   -1.76364886820965    3.53102008474973
H         6.45112358384539   -2.64352752821105    3.78136554416404
H         6.51569520491517   -0.85381117342807    4.01511523016933
