30
 energy: -48.299813128429 gnorm: 0.141428323457 xtb: 6.4.1 (79825abcba525fcdf90b791dcacef51065a7a4e7)
C         0.88299351396459    1.51868591038394    0.47182961707312
C         2.21332448150638    2.06992710507647    0.07400968300086
N         2.61032996268300    3.28094530617133   -0.10744937014330
O         3.09073449371920    1.09462125181101    0.37767882242657
C         4.50593721972580    1.23968306719429    0.16671188928525
C         5.30534258391219    2.14795520931792    1.10158398047981
C         5.76561605275645    1.18279347257966    2.21356092141872
C         4.75447685427598    1.30128546381771    3.27287986778276
N         3.95851881343644    1.41414079595011    4.11158995360622
C         5.71388810487693   -0.18129129147195    1.56793325944406
C         5.15740982226726   -0.09419172024462    0.35287282854755
S         5.35558265607939   -1.32927061521379   -0.81813538060338
C         6.07452850333704   -2.66958303004796    0.02251890602996
N         6.14940822059786   -3.83584151292815   -0.51478959881244
C         6.55357874989996   -2.50635389381666    1.41001878481338
C         6.42785403977691   -1.34420131408381    2.07742570488155
C         7.03040322430428   -1.27583603591975    3.45506009324167
H         0.07183800931742    2.01014478879189   -0.07120222376278
H         0.73797746670297    1.82429980134501    1.51164695923550
H         0.82749988799431    0.42738058641175    0.42584938844391
H         1.82557184885463    3.85338009999701   -0.43747334677842
H         4.45627163689056    1.52278281510814   -0.89156326452211
H         4.70532619993580    2.96837862895859    1.51437334771653
H         6.06083222155396    2.62599809482575    0.46467951239759
H         6.75551644750601    1.36095670490917    2.65310165664131
H         5.62241610354255   -3.97187304263595   -1.38670320682252
H         7.08126834190057   -3.43141631487071    1.62080998184243
H         6.59286588102486   -0.54685037949268    4.14803453697397
H         8.08508274957507   -1.00633441060349    3.34599807528143
H         7.12307734921691   -2.19226399008953    4.04618895047976
