30
 energy: -48.315594211717 gnorm: 0.124861396912 xtb: 6.4.1 (79825abcba525fcdf90b791dcacef51065a7a4e7)
C         0.93973859040965    1.51451657564902   -0.32531408087915
C         2.35817082173145    1.97987600141348   -0.38361187598587
N         2.98380113888449    2.65841934531641   -1.28098105566715
O         2.99014843040311    1.35982804351661    0.63099621925420
C         4.41942232904653    1.50118431145631    0.55654372726929
C         5.02172945172153    2.11955463335548    1.81862027704048
C         5.92069060429605    1.11281858348578    2.56577006872727
C         5.50823109494227    0.93075770082699    3.96410131497843
N         5.17923727171744    0.67578060803979    5.04875323997104
C         5.85377503442089   -0.09981601057491    1.66839753311643
C         5.03974483356043    0.14188805320567    0.63275284823756
S         4.61297617300380   -1.04127535403820   -0.53083865577935
C         5.71044389326172   -2.33473854305568   -0.15329717368113
N         5.84194246377186   -3.37844477435892   -0.89346713794276
C         6.43730985950934   -2.35379654248828    1.13223433532840
C         6.49035427945450   -1.35741230359070    2.03569534804733
C         7.26377090511606   -1.53527444499020    3.31468220873072
H         0.95871794767862    0.43088979668929   -0.46596061334102
H         0.35240071157059    1.93713153161121   -1.14511919300497
H         0.54918308584656    1.74055797445444    0.67093524274613
H         2.33862950312924    3.03199130134903   -1.98570814273920
H         4.69295459744133    2.00216543672041   -0.37980897352541
H         4.22933212157379    2.35063565486408    2.54126632281242
H         5.36476582330825    3.12791431472129    1.55315153504565
H         6.96454155994595    1.44664400822285    2.62722463520740
H         5.34436373787408   -3.38023519927167   -1.79283958193823
H         6.89446125591698   -3.31767178881614    1.33369580761171
H         6.72279245029939   -2.21049308067514    3.98884439216221
H         7.43319489292910   -0.60368262402283    3.86268467034670
H         8.21408857619483   -2.00962572456094    3.05058156035689
