30
 energy: -48.309859597718 gnorm: 0.126405494023 xtb: 6.4.1 (79825abcba525fcdf90b791dcacef51065a7a4e7)
C         1.08609031213338    1.21835364546821    0.58559196046810
C         2.42762146183683    1.51844686011247    0.00065925369539
N         2.84922185735026    1.59559981337551   -1.21318025281804
O         3.34678371659285    1.59467172011418    0.98178885548117
C         4.68909766226990    1.63518121075734    0.46710354048569
C         5.51733626359482    2.33200199049526    1.54712884276624
C         5.76248515108494    1.18764649255335    2.55223285823355
C         4.69739387670058    1.20140807616173    3.56415709967261
N         3.78766988811196    1.18510404626992    4.28655351902172
C         5.70889093166336   -0.06577466575838    1.71181559500258
C         5.22555499604231    0.23897615189124    0.50056022000149
S         4.89717273883667   -0.84776831812011   -0.78283532442107
C         5.83803806216267   -2.22583583125249   -0.29732269231249
N         6.18414051154835   -3.21948709899915   -1.03714464140263
C         6.38807497437862   -2.27314946431917    1.07253483260322
C         6.39393411687320   -1.31440406139804    2.01731536410129
C         6.96058638804904   -1.62628587662257    3.37645141079095
H         0.44367551328956    0.49842833862227    0.07236740893725
H         0.57059868036431    2.18226665977105    0.61369333759496
H         1.23530331879495    0.78755179040515    1.57971784453430
H         2.07390901382363    1.53927020480740   -1.88262755087210
H         4.64690611388836    2.19720273069302   -0.47359307746767
H         4.89299134738323    3.14126083488372    1.94562960329333
H         6.45503857563088    2.69524775193729    1.10701092319617
H         6.71677762846920    1.29183108613809    3.08450386956148
H         5.73896828966867   -3.47867299005980   -1.92658434276650
H         7.09916827905196   -3.08416959762486    1.19591380272930
H         6.20890929561487   -1.45297890152967    4.15620703596120
H         7.76322447270540   -0.91430199189519    3.59028687684822
H         7.46064880734827   -2.58727408362063    3.53234002510860
