30
 energy: -48.305842736656 gnorm: 0.130936408754 xtb: 6.4.1 (79825abcba525fcdf90b791dcacef51065a7a4e7)
C         1.00252026645994    1.89899626409625   -0.75611917273665
C         2.43599922406100    2.16044648475484   -0.42643768827704
N         3.16705436793215    3.16636219178132   -0.75930068425965
O         2.91533762292012    1.21762021984782    0.40698782557710
C         4.34947942988327    1.25352839800295    0.50845960635379
C         4.78281877642004    2.04521023029387    1.74274070295494
C         5.82497518847438    1.14723903921110    2.44090915908763
C         5.46456206375698    1.05116220970558    3.86199005716607
N         5.26349778652255    0.85675278436432    4.98959734196225
C         5.78233354878204   -0.17742972903188    1.71725719532097
C         4.95407374319840   -0.10571345691214    0.66727223724435
S         4.66888102726284   -1.31983440009827   -0.50768638870132
C         5.53738263237027   -2.67090909821825    0.15588132074649
N         5.63800996656582   -3.80993725617715   -0.43314765904789
C         6.34423231647691   -2.51694243875172    1.38330807959318
C         6.50677813634671   -1.38422979610283    2.09209435236101
C         7.63569612383865   -1.22541609852982    3.07491580074242
H         0.36644265960835    2.34770863581544    0.01098652024235
H         0.69299427068016    0.85772703619622   -0.88102577358794
H         0.71772967384304    2.31420293861260   -1.72701503031382
H         2.72544477671151    3.99921582540446   -1.16399625694985
H         4.83746786368715    1.74556292454868   -0.34143902592872
H         3.85483690760067    1.97669754080000    2.32383014300642
H         5.10580299734043    3.09156244126992    1.66681249100630
H         6.84449281593606    1.51603630652613    2.26940615237126
H         5.01205742851589   -3.86781706859849   -1.24634624238766
H         6.98381618954672   -3.38504018055534    1.50967417994888
H         8.63249235935626   -1.24910379906008    2.61785048554105
H         7.53746848238756   -2.11737391414296    3.70072495699623
H         7.40533679402376   -0.35153960129295    3.69227826400782
