30
 energy: -48.308951246862 gnorm: 0.119311804544 xtb: 6.4.1 (79825abcba525fcdf90b791dcacef51065a7a4e7)
C         1.21682141011329    1.95326019534285    0.45040606250907
C         2.46267917735456    1.32183420588040   -0.07973324399321
N         2.57153061146694    0.37288144045087   -0.94271982535815
O         3.53033868307324    2.00173941190158    0.37974132176108
C         4.90189958895258    1.64080219534804    0.14121723341825
C         5.67665191267781    2.37421679702771    1.23659611523425
C         5.93529417773201    1.35801205868271    2.36810557861401
C         4.89148915368481    1.26676706065120    3.39803027076161
N         4.00597340367357    1.15485477286052    4.14170871421878
C         5.82916889170038    0.04014654092286    1.63858108176831
C         5.21588439585441    0.21333282131959    0.46065285881671
S         5.08679835672239   -1.03010316526615   -0.71116466392615
C         5.55256136766962   -2.50749855978588    0.07648234070345
N         5.40666161353721   -3.62708955803746   -0.53971204700740
C         6.08822615933796   -2.35571472080531    1.44444203519874
C         6.20972780654932   -1.24870212378113    2.20048290064934
C         6.94339973196012   -1.19939030677118    3.51384107553718
H         0.36739650237184    1.88742350028850   -0.23408755924306
H         1.30075500177051    3.04345335877015    0.45955094729208
H         1.08744188680839    1.56534997873135    1.46476676610227
H         1.69023707010533   -0.11511001442688   -1.13670113914043
H         5.24455663451418    1.89076989033353   -0.87004966551238
H         5.14380540101232    3.26787009879083    1.58440019614703
H         6.68434787012591    2.56424731354619    0.84496599968554
H         6.93851194832470    1.53566947934561    2.77655744546545
H         4.88797936446040   -3.54288560982439   -1.42307891868718
H         6.40612733575120   -3.31675905360904    1.83682239998946
H         7.56603392920140   -2.05955108949643    3.78865497394634
H         6.27239815145899   -0.93479120002618    4.33640946150828
H         7.70598246844444   -0.41609559191070    3.56655700025340
