30
 energy: -48.305966833227 gnorm: 0.109701830768 xtb: 6.4.1 (79825abcba525fcdf90b791dcacef51065a7a4e7)
C         1.09096862298778    1.39281313795740   -0.03648641637438
C         2.52831983168018    1.24857814489430   -0.41744020769698
N         3.01582178539409    0.87327714144120   -1.54819075875457
O         3.25048978852008    1.55228440979891    0.67778479724487
C         4.67559178702603    1.66332236370853    0.51934390431687
C         5.22571628145420    2.38945819188791    1.74738410847403
C         5.82455448767879    1.28447968410496    2.64197716290352
C         5.10059632646633    1.08524144224653    3.90482631862066
N         4.42706574233705    1.10808969632561    4.85116376458819
C         5.84637994810673    0.05040368711448    1.77202435081231
C         5.31317066156130    0.31088904487008    0.57141567776995
S         4.82859421408790   -0.79789452742988   -0.64173599901060
C         5.52730558189858   -2.28155687642467   -0.06678518224190
N         5.23166225787345   -3.40934228709997   -0.61007261237467
C         6.34180837307998   -2.23903746408026    1.16450109282358
C         6.41460527370363   -1.25495661588583    2.07999142314919
C         7.38850511283313   -1.26743990472600    3.22758842763602
H         0.43784416409475    1.34364670690641   -0.91135769938082
H         0.97525110751099    2.23848016363556    0.64696537033999
H         0.77090400125337    0.52371917048592    0.54521397413585
H         2.32607104672006    0.56046256712275   -2.24016884612115
H         4.78260708658086    2.22298139515162   -0.41761279943407
H         4.40433141426950    2.95439340356447    2.20529717295639
H         6.05892664140006    3.05832260760167    1.49575393348288
H         6.85596564562759    1.63453466022458    2.77796771678532
H         4.55550177967573   -3.34930508978269   -1.38186347118634
H         6.98336276375503   -3.11365918906556    1.11895539299558
H         7.03291901922166   -0.61829579228125    4.03705924072602
H         8.29545312660794   -0.80567209151485    2.82622786604221
H         7.52599853515291   -2.26875366305748    3.64750303542552
