30
 energy: -48.308526281759 gnorm: 0.126324895096 xtb: 6.4.1 (79825abcba525fcdf90b791dcacef51065a7a4e7)
C         0.78437855312643    1.68212490123598   -0.41372807345659
C         2.22723319762635    2.06630295804850   -0.36387117469615
N         2.75430717923710    3.05351465454846   -1.00004087234030
O         2.89263959919177    1.26904809413637    0.49339409619215
C         4.33067533690660    1.28733141049411    0.50161350703542
C         4.94517028521658    2.14587739516370    1.60763686939079
C         5.89002627689405    1.21872027500621    2.39979106556816
C         5.26262184411052    0.82486009137119    3.66858464862353
N         4.88180044685022    0.47471868568849    4.70882314473187
C         5.95949570802777   -0.06842950045306    1.61324336274389
C         5.00376506179169   -0.03742735569443    0.67556339105462
S         4.79292883547785   -1.27162795455046   -0.49415849101922
C         5.82315154444147   -2.53920565913271    0.09905976387872
N         6.01763758655488   -3.64674477072869   -0.52543877418628
C         6.54236536304097   -2.37088154919524    1.37799957952668
C         6.64131244688229   -1.25186046333594    2.11951042144931
C         7.55299459153851   -1.18717098595137    3.31544793572925
H         0.25106704939963    2.31352617534849   -1.12878046920743
H         0.43218140289856    1.87499500458847    0.60333037930948
H         0.59211606638394    0.67000683778140   -0.78086999518384
H         2.13731590587385    3.49894757137505   -1.68804813732580
H         4.57878335326585    1.79191283647237   -0.43987380460980
H         4.11335982745565    2.50652377606198    2.22532191760518
H         5.44697520570385    3.05402731692162    1.24931802884294
H         6.90919881219487    1.56968952733280    2.60703205037334
H         5.54520428371808   -3.93542874936585   -1.39142198079244
H         7.14271478712084   -3.22945369211114    1.66271706896668
H         7.02547531749090   -0.66844071610067    4.12521016455451
H         8.47009972869169   -0.63165598935558    3.09820208015234
H         7.59290777065644   -2.25116756424924    3.56878602783415
