30
 energy: -48.313039353842 gnorm: 0.129763271367 xtb: 6.4.1 (79825abcba525fcdf90b791dcacef51065a7a4e7)
C         0.88402498502930    1.73162090260399    0.64141620034435
C         2.26092220986311    1.94497323184935    0.10239592989062
N         2.50754903228296    2.76218174356138   -0.86116583766445
O         3.18698295878642    1.12405505572177    0.63323452649023
C         4.56386697277694    1.34208081075951    0.27967561859658
C         5.12692956243807    2.18214703765373    1.42651575284702
C         5.75845286636772    1.16778947145371    2.40229165267022
C         4.89537521925781    0.94377372584766    3.56998741460421
N         4.19806311876795    0.80986028335557    4.48952162636960
C         5.90052420663885   -0.06923325740516    1.54799158152319
C         5.23678862153148    0.01022222656985    0.38748817500551
S         5.18774042418922   -1.15066431172674   -0.87183278832618
C         6.01134101689172   -2.51886408998281   -0.18646314143641
N         6.44841970750901   -3.49902869866538   -0.89548063321330
C         6.55803871345629   -2.40466993814821    1.18078596625514
C         6.38155193385906   -1.36261110195482    2.01433446757585
C         6.90150431685499   -1.44090079350495    3.42470181899896
H         0.24124725557958    2.33176360797759   -0.00747068113737
H         0.84440139157816    2.04583399117155    1.68800576418800
H         0.63606871283465    0.68305643549070    0.45387612814591
H         1.69291571389080    3.34461179609457   -1.08385509604829
H         4.62359663315351    1.84055341417531   -0.69526841607826
H         4.43184490489854    2.84539754548092    1.95610558709084
H         5.95365391108212    2.77313331261047    1.01154712355333
H         6.72677502227383    1.58336358515771    2.70968610410540
H         6.00787605193540   -3.60544545884839   -1.81800725546009
H         7.07609931369691   -3.28049158812860    1.55917645526410
H         6.11784096034110   -0.99325797392003    4.04804781593863
H         7.80339134040651   -0.84948491075470    3.60828178104734
H         6.94221284346502   -2.48353229228187    3.75504161121063
