30
 energy: -48.308859111239 gnorm: 0.138213503020 xtb: 6.4.1 (79825abcba525fcdf90b791dcacef51065a7a4e7)
C         0.99895700277753    2.02668277566234    0.59834887205873
C         2.36691842741740    2.14467919239993    0.00956503481912
N         2.78580106048294    3.07205565296799   -0.77886127587971
O         3.24391163697743    1.22734275085579    0.45974446200907
C         4.65172860983808    1.33623144022110    0.18671831372247
C         5.30388720774429    2.14010007765433    1.31209706179836
C         5.73858568707760    1.13145795559171    2.39540669135332
C         4.61875811791120    0.95083485321870    3.32919511828736
N         3.89219928508087    0.70234085777914    4.20102254559558
C         5.87360944951472   -0.12604568904731    1.57036669301510
C         5.21399635537790   -0.03231785379222    0.40857858344788
S         5.10706933867306   -1.27164971166961   -0.76979974711487
C         5.91225722104224   -2.64541650038776   -0.07377010680497
N         5.83762696665141   -3.85899236159457   -0.49344866397189
C         6.45511847506809   -2.51964938294240    1.29399188977574
C         6.44424407495246   -1.38771642892399    2.02230953174933
C         7.17156091280128   -1.33971634363116    3.33924606126849
H         0.43555489352147    1.27572553489917    0.03885808187385
H         0.42327391224105    2.94744395419020    0.47014030107709
H         0.96291400650171    1.72043065361083    1.64765891698007
H         2.04935631851890    3.77316217551662   -0.91502844957661
H         4.86924195302459    1.65772509541190   -0.83889767022332
H         4.56643450413946    2.85397422881702    1.69946830531990
H         6.18943392699549    2.69322311085407    0.97327738090896
H         6.61582465943677    1.34809583064386    3.01859263031473
H         5.53650237449522   -4.02522456035178   -1.46202980183195
H         6.93746173680418   -3.33834046883802    1.81908187628133
H         7.02507812367499   -0.56790969386781    4.10470659147136
H         8.22685106126003   -1.19237785426801    3.09119650200306
H         7.10282316440511   -2.26062063703520    3.92667466531279
