30
 energy: -48.303778980856 gnorm: 0.139648756635 xtb: 6.4.1 (79825abcba525fcdf90b791dcacef51065a7a4e7)
C         1.03248127932801    2.09051264053408    0.71171809713324
C         2.40037230629996    2.06285367070689    0.11170381006391
N         2.95880668320405    2.99665296705495   -0.57624657461557
O         3.18565012069449    1.04866603746572    0.52163912036488
C         4.56166865881191    1.28796170984088    0.17862421227337
C         5.24673264246305    2.13472347624200    1.25178534114102
C         5.61642553225266    1.08451030902057    2.31961534820973
C         4.44556460526467    1.06652748847255    3.20694878440849
N         3.62846273844387    1.09822985850719    4.03221211626834
C         5.79144198240523   -0.25809935120981    1.65102999261736
C         5.20138149599321   -0.03268795541819    0.47007940311598
S         5.23533274937371   -1.20415541166553   -0.77990606178337
C         5.83891811887647   -2.66385251246163   -0.05534477424051
N         5.95151449130969   -3.81848542707420   -0.61087247924098
C         6.50942290151424   -2.53344517309471    1.25412300237024
C         6.50692537485872   -1.45794264866752    2.06352101134568
C         7.27227974138856   -1.40003611840139    3.35831641537120
H         0.39535344881104    1.32376681862942    0.26388148449525
H         0.52094429690717    3.03009179201340    0.48550903257152
H         1.07495691095192    1.85564135917229    1.77903826144739
H         2.26379732945016    3.67880014807046   -0.89886079509703
H         4.61237984351371    1.66409669490478   -0.85021456182970
H         4.50212471909405    2.84792987518531    1.62649182394759
H         6.15533375000303    2.59294259166083    0.84018343447624
H         6.46590767997739    1.44858072579839    2.91179244228174
H         5.29882117853718   -4.01028662674918   -1.38136733741454
H         7.13562057037315   -3.38494809965715    1.50201180297146
H         7.35337966776460   -0.43945882944095    3.88156264013621
H         8.27956676269006   -1.72976860066577    3.08716357621768
H         6.98522591744789   -2.18743335836892    4.06221104542858
