30
 energy: -48.309433508027 gnorm: 0.130054256181 xtb: 6.4.1 (79825abcba525fcdf90b791dcacef51065a7a4e7)
C         0.78518354347652    1.59902530521653    0.00556905165082
C         2.21200940113907    2.03908554997827   -0.04365460762549
N         2.60229884670992    3.12408490826473   -0.61597999113154
O         3.12827827664313    1.18484505353861    0.45031833527304
C         4.55045660142619    1.39740958176535    0.42636473894432
C         5.15565026841552    2.16222185698999    1.60398766181844
C         5.84667644434949    1.12009950197262    2.50750593415502
C         5.08647617047458    0.78720317734973    3.71988990581949
N         4.31858205484867    0.48060584206093    4.53601291540304
C         5.90102167951009   -0.09237960992276    1.60907461250469
C         5.26114088526277    0.08102849179036    0.44541308298969
S         5.00509521784403   -1.13022841210943   -0.73917531010951
C         6.00290169849418   -2.43435428901166   -0.17026590214491
N         5.94811450450127   -3.58155701500310   -0.74939491820463
C         6.56382599139290   -2.38462540288165    1.19508371518333
C         6.57971618004130   -1.31609867193199    2.01351831441491
C         7.28092281494791   -1.33546485983526    3.34526522210183
H         0.45289676890029    1.14217835070243   -0.92998694189111
H         0.09322199357025    2.42324081039966    0.19923789170592
H         0.46530153151998    0.84116866993643    0.72631161831518
H         1.80702608923638    3.61958694869908   -1.03366609540635
H         4.84003591530634    1.92789253014598   -0.48867079913979
H         4.35442671655292    2.62523587198959    2.19319739855012
H         5.84655906597623    2.96341263323374    1.31128435192949
H         6.88490207738108    1.39061561268181    2.73934525724024
H         5.51865751796480   -3.68588129789948   -1.67737214170492
H         7.02122705999195   -3.31949038647842    1.50401953189995
H         6.67637003963001   -1.85946436698460    4.09560714671806
H         7.44893334904929   -0.34867247407229    3.78672615530129
H         8.14341392041582   -2.00735550238999    3.29492614244502
