30
 energy: -48.310218284001 gnorm: 0.129146394344 xtb: 6.4.1 (79825abcba525fcdf90b791dcacef51065a7a4e7)
C         0.93948185380057    1.31434305678769   -0.14077255875686
C         2.32939441433581    1.86058469338310   -0.18165248298446
N         2.90867484743643    2.46594563466194   -1.15893346400098
O         2.99249789494148    1.54691974513719    0.94759187696373
C         4.42775678390276    1.63770168271695    0.93579357141045
C         4.96430655161276    2.03684582517680    2.31085402255960
C         5.77739017569681    0.87462077548938    2.91749180609655
C         5.17893998800825    0.25658025670134    4.10849248010088
N         4.50967303724308   -0.08253229974367    4.99551248508947
C         5.75234434245002   -0.14047893291979    1.79982319287606
C         5.16476058054555    0.35657351535969    0.70378024394680
S         5.00171899101990   -0.51222207619683   -0.76406307126929
C         5.96913857353674   -1.94692369526537   -0.60359312887759
N         6.06105934578350   -2.75114398522740   -1.60321627619900
C         6.63886403885821   -2.14674233371988    0.69749445816072
C         6.45261018255321   -1.41763552875094    1.81353649581589
C         7.08310519128439   -1.88794506530208    3.09685274951505
H         0.71372076151044    1.24421327925328    0.92623372150792
H         0.83968168106137    0.33578499562444   -0.61838500883401
H         0.24252709220589    1.98501602773240   -0.65125552287291
H         2.24687355697044    2.66271576376606   -1.91771095507834
H         4.67872591010373    2.38773934331642    0.17617763257862
H         4.06082299338872    2.09210236542174    2.93067129565663
H         5.48483988877660    3.00286432045714    2.33896390862713
H         6.79593716529540    1.08063935594505    3.27098759994250
H         5.47820792060792   -2.63924872898824   -2.44239578746138
H         7.22205554503462   -3.06158950908744    0.65784694817118
H         6.57640347311171   -2.72111353424595    3.59900433512841
H         7.19961123727868   -0.97295656770041    3.68515276324798
H         8.09140385810265   -2.23822958957817    2.85499221581001
