30
 energy: -48.306014680706 gnorm: 0.129519312423 xtb: 6.4.1 (79825abcba525fcdf90b791dcacef51065a7a4e7)
C         1.02697086399597    1.74041198614038   -0.90528119351416
C         2.42892671891966    2.11171048892275   -0.54672124021510
N         3.19905041761031    2.95659457529411   -1.13848655820347
O         2.84684460951289    1.29504764490584    0.43902275122501
C         4.24568045333218    1.35931767128654    0.76685865359490
C         4.57186446522674    1.89524843461115    2.16126722327151
C         5.77655518232417    1.07458929222778    2.66636170178717
C         5.75265063479907    0.78652812065942    4.10686468026213
N         5.58125379629803    0.66045007836987    5.24898884348754
C         5.74033782722819   -0.15810644589523    1.79493318845589
C         4.83052185936282   -0.01660788879774    0.82239046793785
S         4.47964517306860   -1.20840142706586   -0.35763762276094
C         5.63385400123869   -2.47124736163682   -0.05260932415987
N         5.64401959349375   -3.48594370743419   -0.84302329449504
C         6.60812098901061   -2.35731919590150    1.05152519119190
C         6.59623238436283   -1.32994689057563    1.92112403006783
C         7.63038770329354   -1.22463946754256    3.00972357354495
H         1.06388581601329    0.85709052866314   -1.54775232186025
H         0.45190402889096    2.51305552148853   -1.42293910408937
H         0.39951419724217    1.51857330730170   -0.03739481512884
H         2.72454834263695    3.29897380225680   -1.98114126870448
H         4.71230818464748    1.96423672294179   -0.01983693199495
H         3.73924551482889    1.85412095807027    2.87440362603864
H         4.69166544284121    2.98621048649247    2.18092499160722
H         6.66386699185484    1.65136623934347    2.37507644967463
H         4.92273390876283   -3.78495303531729   -1.51145354362253
H         7.40261998659543   -3.09368820812582    0.97967990506099
H         7.18462078240461   -0.83550830115446    3.93327182596213
H         8.51567312210056   -0.58761052586519    2.92405900837143
H         8.12459980152509   -2.18140204089360    3.20522751416315
