30
 energy: -48.307262518446 gnorm: 0.142411007410 xtb: 6.4.1 (79825abcba525fcdf90b791dcacef51065a7a4e7)
C         0.77513212456345    1.54744330969981    0.27175175701142
C         2.20106579613913    1.99285369002946    0.25656033869312
N         2.78573977322519    3.05527486002996   -0.17532321875109
O         3.15353455691077    1.10519768322538    0.60029690789576
C         4.52108417647915    1.44084919763678    0.30790204879327
C         5.20655599505198    2.23363530083374    1.42128047852919
C         5.68566977510583    1.14344317705754    2.40200090962355
C         4.80762473787727    0.79885906725349    3.52845464494903
N         4.23881766567122    0.54086434559768    4.50805522851036
C         5.79469888724699   -0.09121832092312    1.53946889473391
C         5.19553395858840    0.10634921328903    0.35811610214261
S         5.08215130007975   -1.12657855017925   -0.82636092927860
C         6.05111232649091   -2.45446208413383   -0.26257034026738
N         6.43599184245970   -3.50740914729785   -0.89315449686111
C         6.46362405501976   -2.39996052225732    1.15452254664502
C         6.33060605955077   -1.36375631893690    2.00330056441269
C         7.10084243629903   -1.41884761573852    3.29532087960604
H         0.17459911392958    2.19810231117586    0.91236991609755
H         0.70464918294376    0.53255112056188    0.67259537476232
H         0.50475354080096    1.54575534146977   -0.78798104103925
H         2.20460131630368    3.79640121265090   -0.58208179137675
H         4.54650290654750    1.95450900584369   -0.66063595271251
H         4.38529370234896    2.82981098465355    1.83794830044022
H         6.08787920110574    2.80177342022279    1.09658779400926
H         6.62420084408681    1.46626139647653    2.87081721726356
H         6.07440952954963   -3.61129129453411   -1.84967178182269
H         6.95978675923280   -3.29704158890796    1.51187075712550
H         6.58829163455114   -0.83919269081618    4.07272964545362
H         8.07170799121093   -0.92898182647060    3.17562921833224
H         7.11637445429418   -2.41244372671289    3.75400103864526
