30
 energy: -48.305288208557 gnorm: 0.130988122012 xtb: 6.4.1 (79825abcba525fcdf90b791dcacef51065a7a4e7)
C         0.97816849229437    1.46769811614487    0.52359568913286
C         2.33295082652451    1.43389903572887   -0.10515743175425
N         2.65607986195912    1.51583062960388   -1.34853213923865
O         3.27147814046708    1.50548727457619    0.85782044261171
C         4.65576608544400    1.63141321268071    0.48871575145274
C         5.42488541747639    2.35363424303450    1.59544303250520
C         5.78651341147706    1.17860018446115    2.52732377577895
C         4.72899882648366    0.87928384100761    3.50234792240125
N         3.92234513042091    0.52710209764263    4.26063412779591
C         5.98402959540899   -0.01509480006438    1.62382073941290
C         5.39239862755153    0.32933336887580    0.47274806604382
S         5.14793294936611   -0.77171482071447   -0.81716742785084
C         5.72390193229694   -2.28129009072075   -0.17727495932970
N         5.89763083905060   -3.34886771369788   -0.87338022444761
C         6.31796649207290   -2.29054380724605    1.17486796399564
C         6.55360267215538   -1.28869785870717    2.04240333167331
C         7.14627948534109   -1.34797757049848    3.42473323530365
H         0.18056971439089    1.40562807339265   -0.22096603519824
H         0.75814787618801    2.33152286299100    1.15687867899643
H         0.95177971183491    0.69755965521281    1.29969582246356
H         1.82846528484933    1.63604615135017   -1.94270808598910
H         4.61109482269139    2.09472219636302   -0.50421309975987
H         4.84956412202979    3.14554845132397    2.09080815406565
H         6.31614921934359    2.86291809591769    1.20657842107094
H         6.62047169182990    1.40584332869674    3.20387024453605
H         5.35307893320869   -3.32240295102330   -1.74471336727631
H         6.67034997634620   -3.31218728334443    1.27830975937602
H         6.45812682672002   -0.91717431090695    4.16224734317315
H         8.05045366814394   -0.74274673239013    3.53892272605668
H         7.16497130632432   -2.35774713466385    3.84648915484237
