30
 energy: -48.315271942815 gnorm: 0.123004303333 xtb: 6.4.1 (79825abcba525fcdf90b791dcacef51065a7a4e7)
C         0.96982438110233    1.70790050866300    0.48435353724466
C         2.29253452975361    1.99467096349335   -0.14818783709373
N         2.76210823390455    2.95870430564347   -0.86039992576482
O         3.15283374196337    1.02745900151973    0.22285264604314
C         4.56547585847703    1.24619603177540    0.06491273785402
C         5.08219656083608    2.17516252945499    1.16400959735490
C         5.63616079101009    1.25115915012098    2.26819383314781
C         4.80198907234046    0.94912491916896    3.43931815808161
N         4.07086283255295    0.80628269286380    4.33081722503813
C         5.76593285942236   -0.09914809483709    1.60481807947993
C         5.21077267241428   -0.06470112156130    0.38652561467060
S         5.19789007341984   -1.36500465367670   -0.72926876489169
C         5.83774052736205   -2.64030756829501    0.26280676769000
N         5.76018577135053   -3.83612120010090   -0.20461292380818
C         6.68472290989167   -2.38024205820915    1.44444773609532
C         6.55306040886099   -1.21663108509435    2.10815817705714
C         7.27013945630222   -0.96061320002738    3.40656801336006
H         0.16015761195512    2.31485647267375    0.07151841362203
H         1.09430336433736    1.81564794314376    1.56534617348956
H         0.64074059091296    0.68993362701391    0.25722291954767
H         2.06585101727876    3.66262047318034   -1.12904584566586
H         4.88834957930746    1.58448873975418   -0.92698895930535
H         4.25694993380225    2.84524570359478    1.43505537291445
H         5.91410708097729    2.81291984149391    0.83823766463008
H         6.58478283111915    1.65076720472183    2.64933754254477
H         5.20034988941238   -3.92175124167291   -1.06234823900537
H         7.29263095183486   -3.20852956659305    1.79518584707635
H         6.74687017052324   -0.39855768302454    4.18973810399915
H         8.17363351659880   -0.36524107509360    3.24499751138974
H         7.52422874280563   -1.94747594836598    3.80582046287386
