30
 energy: -48.308794008152 gnorm: 0.141829389542 xtb: 6.4.1 (79825abcba525fcdf90b791dcacef51065a7a4e7)
C         0.92039581315841    1.67598490622092   -0.75124494810776
C         2.36382810690669    1.98776224559619   -0.52495724626393
N         3.07688895486489    2.87276792210274   -1.12945289244210
O         2.93919035620238    1.28017212974881    0.46577948050600
C         4.34154328373037    1.39765317229995    0.76234839189899
C         4.62528678035797    1.98248241157053    2.14634887219615
C         5.83753620671343    1.12754247185947    2.56991759497899
C         5.78531809187621    0.99682927662907    4.03237669000547
N         5.59093774089578    0.78676536198119    5.15834715060928
C         5.84031127530369   -0.10116057257555    1.69212551929842
C         4.89974106812994    0.00969949732166    0.74520225397470
S         4.66055919101906   -1.08542265813121   -0.55073440315761
C         5.63896782166887   -2.43915828525538   -0.07100908906093
N         5.62215314424333   -3.53119159003994   -0.75045493717538
C         6.42951737771111   -2.37605299640134    1.17491935958810
C         6.50749608623178   -1.34821913276751    2.04054856084324
C         7.53319715870789   -1.42038680626444    3.13979590941907
H         0.79309826136175    0.84574451406588   -1.45044798222963
H         0.37871814348892    2.52558217316229   -1.17600298777071
H         0.47116785016612    1.26307223258169    0.15641048845520
H         2.56414458476885    3.40782196489455   -1.83885622971081
H         4.73839503311569    1.88427022904919   -0.13669048517146
H         3.79284785779917    1.73088536324137    2.81511911389233
H         4.79194131109328    3.06491970205920    2.07223659253622
H         6.72311439177525    1.73004331850176    2.32994904612433
H         5.17273875309495   -3.58444099204881   -1.67330367300600
H         6.96934037902934   -3.29218597345185    1.39382825183095
H         7.05530018412933   -2.01166976891792    3.93041053509485
H         7.81201597882673   -0.50866036629979    3.67634922614884
H         8.34239211602560   -2.06091231251520    2.77538877198933
