30
 energy: -48.304889134771 gnorm: 0.135749149883 xtb: 6.4.1 (79825abcba525fcdf90b791dcacef51065a7a4e7)
C         0.97100087091384    1.71079605735774   -0.67587004153665
C         2.46192667831133    1.77492117744551   -0.74612835335038
N         3.23991077766421    2.43176433611326   -1.53378539499927
O         2.83939337555323    1.10355677664058    0.35844101584388
C         4.23591845027866    1.30851813813297    0.63422573015483
C         4.47087517468122    1.96396126060839    1.99554222647539
C         5.77140903787630    1.29485718205941    2.48624870488716
C         5.60097747433374    1.09161398602950    3.93132468817700
N         5.59538644673249    1.25809485080042    5.08109550343507
C         5.83583213757127   -0.03351862224547    1.77105278101883
C         4.90279606595756   -0.01908588275360    0.81039605670690
S         4.54137066693783   -1.28598598846364   -0.28518056662828
C         5.66778093074146   -2.54787179409011    0.11339704458917
N         5.77693518455103   -3.61999115195816   -0.58882198751076
C         6.64013639690966   -2.26616598718003    1.18878314903264
C         6.58411932340291   -1.24766147435884    2.06704717342343
C         7.56015854810609   -1.14712533437672    3.20847414525459
H         0.45388775499895    2.15813006803878   -1.52843966768759
H         0.74942550943783    2.41060905534586    0.13457164934550
H         0.59882645053147    0.69655244471816   -0.50576088183847
H         2.63163237231156    2.92291381387576   -2.19802351917250
H         4.75759566360166    1.74029211855704   -0.22831846797608
H         3.63334315047582    1.58768287116338    2.59592873286678
H         4.45354237193774    3.05321714306887    1.86079041536921
H         6.69402886623475    1.86047270057402    2.30269316886451
H         5.11144366359180   -3.65462594760245   -1.37136914500898
H         7.31088703632547   -3.09953977208827    1.37374618175849
H         7.15436353325952   -0.77205664022604    4.15595840479542
H         8.31658998197136   -0.43582288198726    2.86389495052901
H         8.02651439638045   -2.12624382732591    3.35578729252359
