30
 energy: -48.317181625751 gnorm: 0.125689806716 xtb: 6.4.1 (79825abcba525fcdf90b791dcacef51065a7a4e7)
C         0.99057188742098    1.22287268959404   -0.06003290496158
C         2.44523519427666    1.37961530307929   -0.36218259789301
N         3.02387978053273    1.17786997426843   -1.49424932344627
O         3.14998929564611    1.66871714244822    0.74823468140997
C         4.58190590508720    1.68118895514394    0.61478837589433
C         5.35592630806577    2.46037240210005    1.67862976836589
C         6.01057727984750    1.36065676308896    2.53998861380898
C         5.24787114099405    1.13643484500575    3.77554646107643
N         4.56305766531932    0.92060976142172    4.68887559317182
C         5.81054288358712    0.08817618526285    1.75194213967353
C         5.12967086814326    0.28898011374636    0.61628505176801
S         4.86030140748237   -0.82311797660352   -0.65910910166924
C         5.53725179124832   -2.30037338787136   -0.04309400292424
N         5.41472741137252   -3.47009254641711   -0.56387322892538
C         6.26141694403276   -2.24130040856237    1.24274572266250
C         6.42468886676892   -1.19335926113494    2.07159955771551
C         7.26146342703964   -1.32913405993476    3.31537974216224
H         0.34504215863871    0.90218378608003   -0.88151854359090
H         0.55869736178935    2.19849647382026    0.17932505316147
H         0.74796359595842    0.51822888334139    0.74044155019528
H         2.35154868578323    0.80127082512034   -2.17143961632621
H         4.72456280285842    2.09602533404976   -0.39025797233876
H         4.62660434541490    3.03572136934541    2.26221550425047
H         6.03867146705987    3.14288173360182    1.15615784296499
H         7.06792482187937    1.55635096609956    2.76035388374128
H         4.98730895561899   -3.42024964198569   -1.49730117819741
H         6.76158246216322   -3.19303173051429    1.39331648285274
H         6.82845761191084   -0.75466804348540    4.14336965968814
H         8.29844557998517   -1.08744448356882    3.06412554291427
H         7.33248239145789   -2.39205916731849    3.56639465569308
