30
 energy: -48.304657666426 gnorm: 0.137057028219 xtb: 6.4.1 (79825abcba525fcdf90b791dcacef51065a7a4e7)
C         0.93746726167661    2.03632918593094   -0.28945701080855
C         2.39662389033230    1.85504748657242   -0.55385613830996
N         3.14377117711077    2.21632813332027   -1.53790544224318
O         3.04225008144085    1.41372373406995    0.54235776320325
C         4.48028283327529    1.39860884486656    0.55584801277398
C         4.81975236836513    2.13543519654762    1.85193454761998
C         5.87693437624891    1.23518169313453    2.52408875138798
C         5.50846482616061    1.11852648829793    3.94155869863214
N         5.07534933679325    0.90510929600765    4.99824414487026
C         5.79259724797731   -0.09235303978080    1.80940238846424
C         5.13882620238595    0.05857661384410    0.65033827791064
S         4.71059927240815   -1.17787061959026   -0.45590412847005
C         5.66058190676716   -2.57607867359330   -0.05270788861885
N         5.56811168120086   -3.70078793128114   -0.66991488124510
C         6.41604120008992   -2.41006013350348    1.20546844145998
C         6.54832936142730   -1.32438632033307    1.99010163912843
C         7.36883359765159   -1.48066869393773    3.24228542239295
H         0.45615583309136    1.13925113576613    0.10800863416334
H         0.46141021057819    2.39890366999200   -1.20463952482412
H         0.94853660037174    2.86087339891594    0.42897554791456
H         2.58729884184468    2.59745182958057   -2.31090348950987
H         4.74512918228921    1.90711607172940   -0.37894350553691
H         3.87428357448592    2.31036943074725    2.38013530653204
H         5.33165828725306    3.06590317765147    1.57423232569116
H         6.92740409612389    1.50249355299016    2.35117653177806
H         4.82767565686132   -3.74526788169017   -1.38141654159045
H         6.90500378219685   -3.31764693400491    1.54580856642263
H         8.39122608552248   -1.10165417974444    3.12339832010083
H         7.47397588621375   -2.52906742427186    3.53669960025598
H         6.95717859534733   -0.79403779777107    3.98856964177802
