30
 energy: -48.308800577392 gnorm: 0.126999070726 xtb: 6.4.1 (79825abcba525fcdf90b791dcacef51065a7a4e7)
C         0.92210771503811    1.44320447251046    0.16431161345859
C         2.30170694181241    2.01640011305107    0.15651708443588
N         2.63352048294479    3.19939046753647   -0.22759149933239
O         3.19611577793345    1.02129312318099    0.30843702752629
C         4.59710688774805    1.34513994703694    0.33481512381175
C         4.98837187790644    2.15375432351945    1.57217014430896
C         5.62116163433011    1.12345419853479    2.53026211243208
C         4.84815289796026    0.80209737094762    3.73765044228541
N         4.25695002456413    0.45889331997023    4.67701735589550
C         5.80240551016804   -0.10154627694867    1.66610800704972
C         5.30232418731201    0.02916640499659    0.43060858506596
S         5.13399529469304   -0.97066504966027   -0.95067877881824
C         5.98529000725959   -2.33045852390939   -0.28263760382137
N         6.09490481027525   -3.44955710072654   -0.90719274085050
C         6.59145015797616   -2.29638967330108    1.06372705212721
C         6.42826200459637   -1.36724428062693    2.02388096376386
C         7.15652388801395   -1.48868045483388    3.33556061413294
H         0.90195506780298    0.35285365476064    0.09277404260379
H         0.35697469447415    1.96123306462699   -0.61538105280941
H         0.37677803585684    1.70466945710855    1.07557043170050
H         1.80294238530862    3.80021993806053   -0.26742470721772
H         4.90327862362724    1.76838988566329   -0.62938233366430
H         4.13523657548856    2.59049393705846    2.10595656028208
H         5.81772770294449    2.84010042562606    1.35761291508044
H         6.63434056790495    1.45414889133150    2.79284613194872
H         5.80150894571535   -3.48516606459666   -1.89162631197369
H         7.09297637127184   -3.22378993615220    1.32262824394686
H         8.06369404582501   -0.87328252565280    3.37298038368876
H         7.50003806143228   -2.48490569976948    3.62951261655115
H         6.49854995378942   -1.08374311013276    4.11077543273068
