30
 energy: -48.309895833921 gnorm: 0.130531492537 xtb: 6.4.1 (79825abcba525fcdf90b791dcacef51065a7a4e7)
C         0.87518181795057    1.91456726904319   -0.22488062935646
C         2.36267224508156    2.04431625632167   -0.27433210032136
N         3.03240187024518    2.68092795483813   -1.17059856706879
O         3.00583519018956    1.35117815466734    0.68440965204789
C         4.42359660860686    1.51194259778237    0.86456513122695
C         4.83821409331198    1.98932195449345    2.25675557258081
C         5.65909350308738    0.85764189159562    2.90893550096576
C         5.17958355599254    0.05835512454562    4.04463360191177
N         4.77395405138857   -0.58045173997287    4.92617234409248
C         5.78851359480423   -0.15495281593953    1.79621800892707
C         5.05570930455151    0.16352266714656    0.72141701652294
S         4.86240333952542   -0.70082573695508   -0.74537777401033
C         5.78015988418545   -2.13557940028824   -0.40008829053687
N         5.91963336225310   -3.12759973962638   -1.20687756747691
C         6.47729432013760   -2.29497347428336    0.89215228138312
C         6.60197883240811   -1.36184948126680    1.85421799413383
C         7.52889134524422   -1.50353469419748    3.03166187888810
H         0.49835083848903    1.81206986535287    0.79584526582943
H         0.56892522245996    1.01370924517242   -0.76368609017213
H         0.35974150345439    2.75963264857783   -0.68999009643080
H         2.58945911511943    3.16468728616542   -1.95940864365216
H         4.61101977769881    2.27902206868127    0.10363149101144
H         3.89331952331326    2.17687763427473    2.78164259550940
H         5.46619044913073    2.87751065791232    2.10943491433289
H         6.56898269889957    1.35296111848296    3.27170458337355
H         5.26964237845870   -2.91093640885331   -1.97305464494753
H         7.01935746937882   -3.23256418736998    0.96778827918845
H         6.94468091528901   -1.39359087702576    3.95344443220017
H         8.18544934513190   -0.62905354576668    2.99866450281206
H         8.17757437240492   -2.38312925112628    2.97347506203701
