30
 energy: -48.312796175779 gnorm: 0.118396385247 xtb: 6.4.1 (79825abcba525fcdf90b791dcacef51065a7a4e7)
C         0.99605176443261    1.60895535285060    0.23903116765027
C         2.42838820876942    1.90943007407072   -0.06102761187982
N         2.83251007889115    2.57416683728404   -1.08665734777464
O         3.31023921188784    1.49767039899545    0.86960525254212
C         4.72582803001404    1.66385534009906    0.67766904590239
C         5.51999780291630    2.20645114649991    1.86631411658163
C         5.92047417603403    0.94241114654126    2.65479556336346
C         5.05600271844506    0.61358533129403    3.79635676397270
N         4.38763884595942    0.40041198579810    4.72240585180663
C         5.92086738188871   -0.15736545949565    1.62003516154897
C         5.23052881660454    0.26113130193586    0.55142902694941
S         5.06727441841999   -0.71842620415015   -0.84491169898330
C         5.59121386447289   -2.29668255790241   -0.34031848504482
N         5.40892554392223   -3.30021201698691   -1.12400574847104
C         6.16740430500487   -2.51817252720074    1.00141000785914
C         6.30101222766927   -1.53341524725101    1.90928613620946
C         6.97238710083186   -1.76621678090468    3.23619036254153
H         0.69606861067082    0.69242471161148   -0.27513840498041
H         0.32008876668082    2.38318975103593   -0.13417752496523
H         0.90776260773411    1.46974717426951    1.32021900426822
H         2.05397878458571    2.91035643105802   -1.66398593139655
H         4.92544656269248    2.25639456806381   -0.22322388485074
H         4.97461943788122    2.99434724283742    2.40044092417585
H         6.47759712979214    2.53871868895630    1.44496074011567
H         6.94789870314069    1.18092813828673    2.95868598120785
H         5.10205832729678   -3.10870534341584   -2.08609529199542
H         6.43069792953635   -3.54801024417735    1.22218216783601
H         6.35482234338337   -2.05053935158980    4.09691504692974
H         7.37489268376660   -0.77503024778705    3.46512927537727
H         7.78944634705252   -2.49302752435134    3.19122048204387
