30
 energy: -48.313344133001 gnorm: 0.127980122844 xtb: 6.4.1 (79825abcba525fcdf90b791dcacef51065a7a4e7)
C         1.05297203035017    1.42635090832248    0.47147166901526
C         2.45560527004561    1.56257480525304   -0.02448304762534
N         3.01907224967196    1.41425545927305   -1.17235593063633
O         3.24425214523969    1.80404308932377    1.03994823375320
C         4.66295095118889    1.78124827519319    0.80516573361403
C         5.40646962404520    2.25052551789979    2.05614610587436
C         5.76092409060406    0.94305482350959    2.79422738431103
C         4.73469708308546    0.62007473282371    3.79479794115145
N         4.05928922461774    0.14459970166958    4.61178499732563
C         5.61430416447335   -0.11436347555559    1.72623523644839
C         5.13852325275625    0.38128507118110    0.57663039194510
S         4.95677922000831   -0.48004062915247   -0.89341712850137
C         5.88523765089354   -1.91757812791396   -0.59097537448748
N         6.27858092681012   -2.71561188833217   -1.51989379733612
C         6.43957816516684   -2.18106167389916    0.75236814909115
C         6.21940751918773   -1.43354718483577    1.84990369966533
C         6.76211030559133   -1.91506717076950    3.16870164763874
H         1.09428476121231    1.42160717011012    1.56356114178475
H         0.62246566472155    0.48147797512584    0.12864661349052
H         0.43181049043118    2.24700122424861    0.10156298593198
H         2.36600217561318    1.05591528379721   -1.87771719436253
H         4.85959559010762    2.47538661561875   -0.02070428666923
H         4.81583717940799    2.89966063801203    2.71439090781795
H         6.28723296857486    2.78921543938820    1.68331103317346
H         6.76291538006708    0.94687722350481    3.24237895021496
H         5.95567852885551   -2.50484342491926   -2.47266307945071
H         7.07060299291884   -3.06005071663454    0.84077426993283
H         7.38364331007959   -1.16701417617076    3.67583676925453
H         7.40041198612257   -2.79664973913992    3.27941615969676
H         5.99983000108865   -1.97370357741370    3.95186990367366
