30
 energy: -48.310013599582 gnorm: 0.124579250643 xtb: 6.4.1 (79825abcba525fcdf90b791dcacef51065a7a4e7)
C         0.77440334851470    1.67391268145009   -0.34744235991390
C         2.22002509614034    2.01715130021511   -0.19164430184301
N         2.74852255641438    3.14765023030287   -0.50750568084805
O         2.91532181671274    1.01244333882297    0.37440263600752
C         4.31676437988325    1.26353194412431    0.57753288997809
C         4.66303287996852    1.92049825793873    1.91412794171942
C         5.68292253446879    0.99938779951870    2.61502882905953
C         5.31694232599520    0.91033409794282    4.03514403796534
N         4.84373684055895    0.85809024297869    5.09489268684106
C         5.74718890071464   -0.22892444538382    1.73903985811711
C         5.08467221038379   -0.02034564478261    0.59396672798229
S         5.07756653789652   -1.00342764376114   -0.80940479484039
C         6.04570935932711   -2.35178065741019   -0.29495011075082
N         6.23090564587024   -3.36800451660128   -1.06140790791334
C         6.69349981733747   -2.37189757833210    1.03217137494374
C         6.56665756668915   -1.41144222863707    1.96666248352594
C         7.32220899170557   -1.60313872437043    3.25429990091673
H         0.28334547313677    2.64508173963862   -0.24703577325911
H         0.45874479814520    1.16891815799521    0.56961260979940
H         0.46450014844554    1.17368326402838   -1.26932715034291
H         2.11895776671896    3.68323934226231   -1.11515294016752
H         4.76199607291320    1.88772223927092   -0.20650383883133
H         3.75216742692427    1.96276675717000    2.52408431112717
H         4.98988606765719    2.96744469770151    1.86932840767201
H         6.67102232078354    1.47151277188088    2.54021088698905
H         5.81588621736810   -3.23617299712642   -1.99244921413145
H         7.28226499701655   -3.27202682433797    1.17965872570376
H         8.12928290847876   -0.86060642968974    3.23559071688325
H         7.42832451453860   -2.66863009265043    3.47867046757500
H         6.70423878411199   -1.20967357685081    4.06741733919222
