30
 energy: -48.316286519082 gnorm: 0.122261360329 xtb: 6.4.1 (79825abcba525fcdf90b791dcacef51065a7a4e7)
C         0.98406459938760    2.06223002609207   -0.11387519577695
C         2.46708852305236    2.23920777431469   -0.14890316401402
N         2.98982849377785    3.05824123426747   -0.99331594132507
O         3.20932792413518    1.49504880273010    0.69287642759124
C         4.64240564434786    1.48796398591825    0.57210065792728
C         5.37959890325577    2.05711649018401    1.78478551917812
C         5.99776256959203    0.91277776795179    2.61439032847322
C         5.24393001822534    0.70159396573056    3.85766719161010
N         4.71238906422117    0.31435474696760    4.81538852018568
C         5.83744390636309   -0.25027964758626    1.66474118759303
C         5.12154221355984    0.07068839291904    0.57934238275761
S         4.75070392207856   -1.00463114990917   -0.70210969319951
C         5.42107725734738   -2.49988843979487   -0.12346873008914
N         5.30112966776443   -3.58636964531967   -0.80143437736692
C         6.32656942016955   -2.55570750178587    1.04197409988976
C         6.47705914830956   -1.53615989497203    1.90783369860944
C         7.28705842620516   -1.62712755159521    3.17323557131404
H         0.57593893043966    2.08654457886959   -1.12739919797039
H         0.47923343176952    2.90050043091928    0.37407749748128
H         0.88595089058283    1.07850681427480    0.35388903584961
H         2.25021496128667    3.52683494655850   -1.52795083645413
H         4.89867303885676    1.99180721544625   -0.36759475253631
H         4.74772075358835    2.78693891436814    2.30593669373303
H         6.20307917860231    2.64672960186091    1.36149660472818
H         7.03718888959090    1.13390619113967    2.88922871307309
H         4.64752498137142   -3.57929074520567   -1.59466159133760
H         6.73209057677884   -3.54123562877332    1.24913737415297
H         7.28586120327346   -2.65665562879682    3.55157813393959
H         6.84462969224726   -1.07395978775147    4.00698421245656
H         8.33072470231103   -1.32245702895383    3.04754313944712
