30
 energy: -48.305807205236 gnorm: 0.143777017106 xtb: 6.4.1 (79825abcba525fcdf90b791dcacef51065a7a4e7)
C         0.90167624543972    1.67349938331424   -0.63225790872026
C         2.26029711489671    2.07116657218654   -0.15485015412297
N         2.80717520701044    3.23577894429321   -0.19618035054740
O         2.96148480502135    1.04574124807577    0.36488389917890
C         4.35813553229093    1.34895415898071    0.52543711341681
C         4.63795406488550    1.93801180166157    1.90844312254614
C         5.70277795130722    1.04738796530002    2.58136266634916
C         5.37712784111570    0.76392870747381    3.98571381407603
N         5.08366850051378    0.41958231187445    5.05577326546846
C         5.61476970638677   -0.17967290113890    1.70568350479055
C         4.89709399865801   -0.04550344706668    0.58293417018083
S         4.77525006248463   -1.20416431385459   -0.67349384763897
C         6.02389781362908   -2.34776590303898   -0.28224690364212
N         6.34865874740876   -3.32339835427904   -1.05499381618558
C         6.67719562620082   -2.27394216043785    1.04026608490990
C         6.51600127325332   -1.29711978937392    1.95222632747144
C         7.28410177384867   -1.37316991903458    3.24445448100484
H         0.59827912394455    2.29964360673084   -1.47504035832054
H         0.28354568780343    1.96373091256154    0.22175021806142
H         0.89697257336473    0.58795529300261   -0.76534785819929
H         2.28062781889399    3.93452593270834   -0.73185115208982
H         4.74714995930663    1.94898271016678   -0.30594239085346
H         3.72827524287607    2.07964238950999    2.50504557413536
H         4.98749477148668    2.97847045160716    1.89416216103443
H         6.71581921792580    1.46951353303686    2.60131992430236
H         5.86104509432682   -3.26602139570880   -1.95798849939515
H         7.29286416266196   -3.12977253172767    1.29937269614409
H         7.97467275395722   -0.52423061951972    3.31852423512738
H         8.08844261592752   -2.10759202770110    3.14181684323324
H         6.73581969622835   -1.56179456599298    4.17271600731590
