30
 energy: -48.312508770508 gnorm: 0.127988706049 xtb: 6.4.1 (79825abcba525fcdf90b791dcacef51065a7a4e7)
C         0.94104568602896    1.60154377644418    0.97096534445437
C         2.23711592568136    2.09083748904921    0.41176804559307
N         2.58650365741348    3.28249744646516    0.07268020185111
O         3.08024853126890    1.05037699923855    0.55267273715522
C         4.44759820599464    1.23235027576623    0.14574615499413
C         5.27510958572606    2.09724357650929    1.09715429218527
C         5.59857432624719    1.15252695817217    2.27306352047020
C         4.63217484600753    0.92360382699386    3.35577564261027
N         3.79230637870423    0.78325632119609    4.14611961261245
C         5.74484539233822   -0.12299499883708    1.47815073479026
C         5.16235508353358   -0.07577544893655    0.27311907447920
S         5.36911813659048   -1.18362500403350   -1.01756707134850
C         6.36672651015216   -2.41227284815294   -0.29977741822198
N         6.86791211466182   -3.39136544212494   -0.96660334699664
C         6.60015452165453   -2.37602769030483    1.15812732457852
C         6.33200138508302   -1.35332650330593    1.99120188546686
C         6.63906404294594   -1.51418046484586    3.45593876629197
H         0.13576207228295    2.12679283008231    0.45133048023255
H         1.04828921548557    1.93075483619313    2.00815795466026
H         0.76515364196557    0.52945042439958    0.84519227921816
H         1.78397852477950    3.91741907825207    0.00008098779188
H         4.48002199273923    1.56839019185945   -0.89760625219167
H         4.62126666323804    2.92567427704046    1.39665600868756
H         6.20302400259308    2.47717113247798    0.65042535674346
H         6.56849944063033    1.37467732580863    2.73645901767603
H         6.59366624341988   -3.38385306241765   -1.95715438228293
H         6.99247783229995   -3.34550952977526    1.44936088984978
H         7.12958873783636   -0.59729109211800    3.80489713651286
H         7.17347899231445   -2.43622107288462    3.70315584346544
H         5.76012191216184   -1.54969362769584    4.10713881774891
