30
 energy: -48.314447540313 gnorm: 0.123864484372 xtb: 6.4.1 (79825abcba525fcdf90b791dcacef51065a7a4e7)
C         0.91762525800774    1.78942218543998    0.37295290094806
C         2.31443196840523    1.61504538038950   -0.12747867832744
N         2.65548622221566    1.67007500339876   -1.36754300904251
O         3.23748339121764    1.55502032127425    0.85112124918590
C         4.62869247244457    1.58896494285723    0.48816986103740
C         5.34184463523904    2.28550507029458    1.64758298535213
C         5.84275416556811    1.15674167397441    2.57217169493858
C         4.89509000237811    0.85149972013747    3.65261572100666
N         4.21727482016417    0.51988094614087    4.53597048008697
C         5.88886655926108   -0.04526488679027    1.65932356718725
C         5.07570062779213    0.16699768667730    0.61657157382364
S         5.00302394880989   -0.85126515315480   -0.75958656720128
C         5.80395429316944   -2.28811595188328   -0.19923815916842
N         6.05115778344044   -3.30356453023607   -0.94905197330773
C         6.32667442804020   -2.37264505222604    1.17949570824925
C         6.45557457670435   -1.33552280099745    2.02778765884093
C         7.19219687414294   -1.53236654761852    3.32557644506753
H         0.13749215627429    1.06333295554995    0.13092928203631
H         0.54856110056070    2.79479968891239    0.15236883568946
H         0.92346162025885    1.83243233057284    1.46577360669363
H         1.85363139530086    1.71377514127592   -2.00594871664654
H         4.73143821827445    2.06528322608602   -0.49423665978119
H         4.62257225937132    2.96094719546105    2.12709779967246
H         6.22872731842843    2.81370897381051    1.27425122857282
H         6.83899453700727    1.37536295134173    2.97782025970586
H         5.83263544148764   -3.33396369699214   -1.95293566148064
H         6.71577276491497   -3.37808829911708    1.30722966368574
H         7.01715376372610   -0.73360070706630    4.05660693737499
H         8.26471694430644   -1.50435864671951    3.11158867184744
H         6.85447371733816   -2.46555349508820    3.78706008869557
