30
 energy: -48.310252766730 gnorm: 0.135832612026 xtb: 6.4.1 (79825abcba525fcdf90b791dcacef51065a7a4e7)
C         0.99343936075177    1.47614695205459    0.10979756720038
C         2.45043743071258    1.49995338909082   -0.21959264838273
N         3.03461852689721    1.51851221041995   -1.36654244597463
O         3.20615137087944    1.76416555856732    0.86316916709059
C         4.61561559825543    1.64092576449314    0.60515506344151
C         5.30495366567854    2.37427895691498    1.75624114686024
C         5.84537880283629    1.22670606912961    2.63424951898597
C         4.91299253525346    0.87933828112651    3.71526336321803
N         4.25319095782636    0.43128372970581    4.56002909104398
C         5.91890822591153    0.07645661998158    1.65866880228181
C         5.14869226286169    0.24333370895575    0.57582731834332
S         4.66692586923774   -0.92390846683006   -0.58236067583649
C         5.73867435326293   -2.24482881601649   -0.22662939148859
N         5.81970100853908   -3.30622825171318   -0.94866275283834
C         6.42276270236026   -2.18523164608543    1.08094856799463
C         6.48703246809934   -1.21693012998572    2.01373948035043
C         7.29417650815202   -1.47573196764765    3.25758671913749
H         0.89402670870081    0.65530196619623    0.82444383999031
H         0.39977584236045    1.40170332755777   -0.80544632547389
H         0.67295664205773    2.44044640105794    0.51422114857638
H         2.50029658370062    1.35409576911671   -2.22672266584580
H         4.71537596248924    2.19789145791267   -0.33420404136691
H         4.59786729520284    2.92773137693803    2.38650188021524
H         6.14122663068688    3.03097529246687    1.48359788743082
H         6.82037622824198    1.52657071260455    3.03959160118446
H         5.44363905717730   -3.13942782952947   -1.89058293838338
H         6.85141299318530   -3.15696124284821    1.30596018293201
H         6.66187761113260   -1.29428453885316    4.13528115432361
H         8.18003685929802   -0.84353269513446    3.36916663666080
H         7.51725508135848   -2.54394799790199    3.34132721967022
