30
 energy: -48.310909289139 gnorm: 0.121349151501 xtb: 6.4.1 (79825abcba525fcdf90b791dcacef51065a7a4e7)
C         0.99412658851289    1.54066648834649    0.17458529670907
C         2.36906004204748    1.58101876969633   -0.40837071655031
N         2.67746726389886    1.80052571521105   -1.63873956120330
O         3.32260377649447    1.36382336530057    0.51729944971623
C         4.71980131834057    1.46963433602081    0.19327518650479
C         5.37780292251737    2.31857995958074    1.28153901857499
C         5.98527315095242    1.34115192029953    2.30891226682704
C         5.32597690296702    1.31411284829292    3.62161812136951
N         4.92803339968635    1.58134661087414    4.67989367662575
C         5.87669415811570   -0.01919317272051    1.66245293995690
C         5.32242281179221    0.12490429811622    0.45181461524054
S         4.95605777780187   -1.14833932577530   -0.63473021958443
C         5.53123608167549   -2.55180913376497    0.21348107462611
N         5.40420036059009   -3.70735779329209   -0.33700540272593
C         6.12566535796461   -2.43017263939934    1.56001254002133
C         6.35783306463315   -1.27779595601852    2.21572832163070
C         7.00024504060665   -1.25829917354711    3.57680963372289
H         0.77119906644305    0.87721658824407    1.01394589160941
H         0.26296190362760    1.36058681341217   -0.61826974725304
H         0.85246560453800    2.49899321337819    0.68221024156232
H         1.82094258891414    1.84391713967904   -2.20170081962902
H         4.76209809389511    1.84330598123373   -0.83684075659409
H         4.61182747521985    3.02242306753182    1.62995796610276
H         6.25413706031048    2.82918344500775    0.86170641053198
H         7.00652917618221    1.58383075738313    2.62982349122242
H         5.12483621865749   -3.70911623555526   -1.32615209087124
H         6.35754549035081   -3.42271777763405    1.93379771885069
H         7.68978017124376   -2.09901583793866    3.72106405312936
H         6.34267054185398   -1.53102256836664    4.40752753750159
H         7.53927033130320   -0.32543703397384    3.76937630795997
