30
 energy: -48.303591908433 gnorm: 0.135563976012 xtb: 6.4.1 (79825abcba525fcdf90b791dcacef51065a7a4e7)
C         0.83389385862670    1.69976490091513   -0.25615130662659
C         2.25008545438610    2.13106999636011   -0.05543931931070
N         2.80749188429583    3.28031311432420   -0.21557718588648
O         3.02942111125696    1.06487427707709    0.20751957023080
C         4.42403934160383    1.32051650118894    0.44842556167591
C         4.54005795293808    1.91161238980732    1.85382169033576
C         5.61447202297536    1.04692971372678    2.54508120803332
C         5.13256872720480    0.58164569985307    3.85270474133974
N         4.52782814833746    0.40449783058632    4.82873113789290
C         5.96347164823987   -0.03433554307579    1.55044431902004
C         5.18494434932512    0.03245116395546    0.46275836422659
S         5.02265646822757   -1.06581089567115   -0.84239887768043
C         5.90470250939133   -2.38801084373228   -0.13968836057837
N         5.95043436575122   -3.57247582392861   -0.63910548092905
C         6.68619864946706   -2.28112149595405    1.10896173457109
C         6.70754733707287   -1.22383977927871    1.94175023147721
C         7.55912371781638   -1.31803195204629    3.17931280445659
H         0.16054000957697    2.54833756234527   -0.11155638526801
H         0.77726065505940    0.78041682550983    0.33312062012369
H         0.85219952519639    1.29575520452600   -1.27231177580727
H         2.03434916434765    3.95262955771625   -0.26738112420195
H         4.65875683087949    1.94704628678006   -0.42043950354344
H         3.57795091785420    1.78204840156765    2.36477423056977
H         4.80838830644479    2.96535437246650    1.70361013352068
H         6.50199231150437    1.65229547720673    2.77020546553474
H         5.58790774868855   -3.74889657653749   -1.58457296203930
H         7.22736986952394   -3.19734009501954    1.32415190121501
H         8.58066558374625   -0.95806814154731    3.00624975891228
H         7.72227295064928   -2.39341158543851    3.29685210582150
H         7.13437149414600   -0.82868498470506    4.06134854905996
