30
 energy: -48.311649336463 gnorm: 0.132702092213 xtb: 6.4.1 (79825abcba525fcdf90b791dcacef51065a7a4e7)
C         0.95938939516274    1.72734960924670   -0.40268835764619
C         2.38718979818703    2.13160824207199   -0.22986184270163
N         2.93146671909517    3.19600248587679   -0.70728550064023
O         3.07925872212942    1.22820413467620    0.48998981109868
C         4.51153123532492    1.35421154291872    0.45733536843823
C         5.08537589499687    2.17980010617738    1.60933314736255
C         5.94873180351914    1.15067675439934    2.36788655356359
C         5.37571812389023    1.09696818766496    3.71968912044513
N         4.95135407939929    0.85775594252677    4.77439893763501
C         5.87624283817205   -0.15902871015775    1.61978558569499
C         5.12197157585130   -0.01009046079937    0.52319152866303
S         4.89071450354874   -1.24573257267855   -0.64113716733090
C         5.51405330015586   -2.71020772347460    0.05656005436116
N         5.38464815034972   -3.90911619519205   -0.39103243914482
C         6.32983207296166   -2.49822195008879    1.26934850960121
C         6.51236106143579   -1.40329345157398    2.03069736059700
C         7.34882841802028   -1.28008508972667    3.27599166011459
H         0.49778565159769    2.12842653253275   -1.30847417535813
H         0.37817275961122    1.99670846206813    0.48347338864616
H         0.86587837734795    0.65728868941245   -0.60851923751899
H         2.24806461338929    3.82981875813097   -1.13586596033359
H         4.66306164362500    1.85776545017876   -0.50496938568872
H         4.33648709498918    2.57062696478911    2.30928260448097
H         5.70640778101423    3.02159352512628    1.27670703203624
H         6.98120736800196    1.43870732356336    2.60426249705697
H         4.91126753406628   -3.98252336450352   -1.30041728052562
H         6.77525633292715   -3.42481983383399    1.61812251554302
H         8.31511765030615   -0.93078448010945    2.89213389417152
H         7.55205113561718   -2.26236470267868    3.71268587962963
H         6.80481043055839   -0.73047769756970    4.05048384843664
