30
 energy: -48.305992711666 gnorm: 0.141750852873 xtb: 6.4.1 (79825abcba525fcdf90b791dcacef51065a7a4e7)
C         0.87402498272307    1.79885886126151    0.36566048628528
C         2.24252781768485    2.16514441124801   -0.10862097715782
N         2.69882354592255    3.24648001151520   -0.63740574788243
O         3.09663979293394    1.21887626382574    0.32537680805766
C         4.51865530791517    1.43221896384025    0.29881722011550
C         4.90575514963998    2.04291716991474    1.64610870868217
C         5.60692994510483    1.01304118575614    2.55582889236450
C         4.66407879049817    0.47172912237247    3.54406584252370
N         4.06837902352781    0.07327658338024    4.45844947627735
C         5.87392465980522   -0.07247586669472    1.54064201948426
C         5.18886239771634    0.09867667250079    0.40265149219376
S         5.06095514851520   -1.16207071902768   -0.75065161890717
C         6.03713465637114   -2.46612422596580   -0.14522780393801
N         6.23420580542334   -3.55443648636763   -0.80189021783426
C         6.76588925691246   -2.30891303873175    1.12971924033315
C         6.70985900382542   -1.20884220910727    1.90337409507596
C         7.35165548366231   -1.31524076199513    3.26072159472208
H         0.96536364235834    0.78511039966187    0.76360516151117
H         0.10960093219306    1.63586771158930   -0.39902203740602
H         0.67392396448561    2.54492133281468    1.13992878714317
H         1.94324859572941    3.91671061092778   -0.81723942409872
H         4.83158197781433    2.03046982589435   -0.56531886122769
H         4.09682048279908    2.52494753541909    2.20894145587660
H         5.61095763156038    2.88200407373360    1.58644728752279
H         6.53815554337869    1.30083831561401    3.06063835944222
H         5.55944750619977   -3.75825683540371   -1.54996580817871
H         7.31950161454503   -3.20038922807289    1.40795145878462
H         7.83523413608601   -0.35006387642495    3.45477780314785
H         8.08359896533552   -2.12833866276347    3.26296948279441
H         6.66199372124429   -1.53303332204646    4.08218067088194
