30
 energy: -48.317162264052 gnorm: 0.130849468911 xtb: 6.4.1 (79825abcba525fcdf90b791dcacef51065a7a4e7)
C         0.86360473895781    1.50446126345872   -0.42999210117443
C         2.25819039056452    2.02038382129621   -0.28555250544162
N         2.86341318850407    2.93976541278408   -0.95304682164520
O         3.00782526953868    1.15623565416268    0.42478561689196
C         4.42029896434654    1.42525455035300    0.45471127656028
C         4.91366664249115    2.17018521975978    1.69554147294146
C         5.87867075373564    1.22594343702223    2.44190329546749
C         5.31464383638887    0.93558166324295    3.76710629880410
N         4.86468642178391    0.54818257852702    4.76569547562988
C         5.89128873298133   -0.05048374488903    1.63517392745893
C         5.06254630025243    0.08095619392584    0.59136577016671
S         4.71059001204588   -1.18735453478112   -0.50566066496355
C         5.74136529910921   -2.47807143238040    0.03431357220856
N         5.88686182749138   -3.64100720172284   -0.49566501110494
C         6.57028991876211   -2.30846664470091    1.24485344542954
C         6.58568142193991   -1.25173247315485    2.07846789783350
C         7.46873509072886   -1.31486169461503    3.29577908459932
H         0.34763771984288    2.12620371584136   -1.16592893071697
H         0.36607648838752    1.65214565941612    0.53245507442568
H         0.83014307344789    0.44338194620515   -0.69292180674169
H         2.21440595225384    3.40147739132008   -1.59961806240614
H         4.66889820295489    1.85231690455809   -0.52425477849562
H         4.12936519401861    2.51114280359047    2.38265750022457
H         5.47687301902022    3.06074260834288    1.38790049338339
H         6.85841847049332    1.71292122367147    2.53015263609209
H         5.33153680673002   -3.75582589306826   -1.35292190241645
H         7.13557381770609   -3.16907880650390    1.58899067933599
H         6.93821851964197   -0.88990773128557    4.15661521193943
H         8.37860833322279   -0.74923035791328    3.07426975030962
H         7.87937960389109   -2.30338430137149    3.52393714042471
