30
 energy: -48.312371549140 gnorm: 0.132186804250 xtb: 6.4.1 (79825abcba525fcdf90b791dcacef51065a7a4e7)
C         0.91752623841582    1.74413259929492   -0.78499831714705
C         2.41070913148903    1.78855233900092   -0.76656595918399
N         3.14688736405965    2.11523892395337   -1.77076877182991
O         2.99094889747485    1.47200590863802    0.40663688697479
C         4.42010873656166    1.46277743282712    0.56715363796866
C         4.78499546827685    2.09454021119633    1.91092683553390
C         5.94286605646052    1.24508205161755    2.47452064742346
C         5.70731964388718    1.01251517857183    3.90596392436697
N         5.35213954289540    0.99702067372876    5.01200510075517
C         5.87755182539636   -0.04711740319891    1.69593702113125
C         5.05571250000513    0.11097222585874    0.65036839445506
S         4.61521454624205   -1.21746789225716   -0.33814601678089
C         5.40369673616500   -2.57588246955847    0.40551093722975
N         5.11009312623917   -3.77509935763284    0.04475904664851
C         6.50718711426912   -2.40834509725269    1.37273832915215
C         6.61134215006156   -1.25294517959452    2.05540943240862
C         7.69072196798560   -1.08350416087082    3.09070870532010
H         0.75270760311424    2.76987052034613   -0.44575623013823
H         0.53955671612806    1.02680823853096   -0.05135371148788
H         0.53433038649234    1.47129496064613   -1.77234911185611
H         2.63947253804148    2.16372181021240   -2.66106215959677
H         4.80265834444654    1.99795124092670   -0.31023063488071
H         3.91863712074572    2.15519446688484    2.58119062351091
H         5.08310506109960    3.14736413965938    1.82358095627949
H         6.89530484986264    1.78979114284339    2.44300477772118
H         4.30090887595368   -3.85538247270931   -0.58391738840102
H         7.03384605223468   -3.30941385394419    1.67162806725063
H         8.24286737635881   -2.02764928077656    3.00825875403214
H         7.22497087453337   -0.79525527351281    4.03773722315101
H         8.35604089919507   -0.27317969156406    2.77672312788813
