30
 energy: -48.309595301338 gnorm: 0.131038620410 xtb: 6.4.1 (79825abcba525fcdf90b791dcacef51065a7a4e7)
C         0.98518319891938    1.54514991649627    0.28898242580642
C         2.38620997791131    1.68735304877596   -0.20982642472732
N         2.86656068776997    2.05142366643734   -1.34728921591981
O         3.22643814224363    1.50607536330624    0.82672546023176
C         4.63525507583164    1.57686012719295    0.54641654881552
C         5.30927213366378    2.24787379994287    1.74367788051554
C         5.84358002982250    1.10624981533470    2.63311102067064
C         4.85913653831777    0.79759696120944    3.67915302879877
N         4.01775899248588    0.76085146138903    4.47943655788567
C         5.93058246421303   -0.03505133533247    1.64817429141221
C         5.12592477510534    0.16439913262112    0.59633220284614
S         4.86989558642402   -0.93001791503018   -0.69697864592365
C         5.77916930489807   -2.33422012688993   -0.22638584259524
N         5.56000762955621   -3.46106160057284   -0.80661227093653
C         6.54868918836838   -2.28094866691591    1.03309425591568
C         6.63648858151982   -1.27831639600929    1.92688232690265
C         7.34497815425438   -1.46400999089902    3.24186379394332
H         0.45111259052994    0.92515241831684   -0.43542101761035
H         0.48898366509629    2.51104025167421    0.16056322066889
H         0.89947643057881    1.12735601984772    1.29607906630100
H         2.16742252077243    2.17638698926591   -2.08758152763505
H         4.90097597646670    2.15988969889617   -0.34354264217295
H         4.69267518126701    2.84543832002415    2.42649128920673
H         6.06752572364251    2.98938030485223    1.46055866424904
H         6.78150175420073    1.29017901948509    3.17284602120799
H         4.98845604009000   -3.49490096741102   -1.66021773552961
H         7.03938431792386   -3.19193684802929    1.36164948427721
H         6.69308233915439   -1.67397595570497    4.09861272629920
H         7.96289387813232   -0.58373023267556    3.44226903512649
H         8.12180501622496   -2.23441671502478    3.21227467743332
