30
 energy: -48.312968094579 gnorm: 0.129089045064 xtb: 6.4.1 (79825abcba525fcdf90b791dcacef51065a7a4e7)
C         0.94241741346691    1.55139226699511    0.84948392616355
C         2.25194033705589    2.01210707290983    0.29739733595314
N         2.68909163360424    3.20362157764766    0.08222824530603
O         3.14455055654289    1.01147064981391    0.42092263901014
C         4.52286364139273    1.33007769035364    0.16190285751988
C         5.15072848091503    2.16596544825630    1.27773006096804
C         5.59928345939215    1.14887877246853    2.34740972140468
C         4.54861388794040    0.80504715756416    3.31512486427783
N         3.83995012759963    0.55755009118793    4.20183842995681
C         5.66570233578102   -0.13260529632304    1.55140410193845
C         5.25066779157457    0.02907850011364    0.28837970294915
S         5.30810615273111   -1.16084441744647   -0.94317890842055
C         6.28883258308467   -2.43999224147051   -0.29358173790676
N         6.60503480058140   -3.46568364907690   -1.00241135442817
C         6.69851845706655   -2.34874125307986    1.12244062037516
C         6.41644963079220   -1.31836212013108    1.94133808621117
C         6.75511309555108   -1.37610644200854    3.40680329121340
H         0.81118758339196    0.48180318519188    0.66742188518306
H         0.08408557245915    2.08163697938233    0.42787201657440
H         1.11711674448591    1.68037498872501    1.92139093360835
H         1.92692543807659    3.86484459584451   -0.10305403596683
H         4.59641998186979    1.81839621457873   -0.81722576125074
H         4.38607168776962    2.92063995490255    1.49971125207886
H         6.02771078742224    2.74351127832922    0.95791807562813
H         6.52754153187369    1.45448170881076    2.84719436749161
H         6.30805031348090   -3.38245995608042   -1.98288706412127
H         7.17878727739105   -3.25553641033847    1.47697411982522
H         7.77984660520225   -1.75108086730626    3.51810450595739
H         6.05905942921737   -1.98864292007896    3.98747778353372
H         6.73545642816291   -0.38054162199607    3.86103480393365
