30
 energy: -48.310654831573 gnorm: 0.122395411686 xtb: 6.4.1 (79825abcba525fcdf90b791dcacef51065a7a4e7)
C         1.08165970015641    1.59495478649659    0.40868039848143
C         2.51693935748822    1.59577425478277   -0.00590331292753
N         3.00976190447379    1.40976393182759   -1.18048064254743
O         3.35380049894012    1.83140329040144    1.02240945034266
C         4.76202778953361    1.76401724163930    0.73832555278608
C         5.46698862637175    2.15330959853653    2.03812346946440
C         5.97053552877196    0.87224926257250    2.73469104347960
C         4.95989496478637    0.62584770537639    3.77223200382717
N         4.27754824674949    0.69760291330693    4.70976825161532
C         5.76693733368762   -0.20087096833641    1.69200289741378
C         5.20730999389203    0.34213568042738    0.60315628289324
S         4.89269518775122   -0.53130325370036   -0.83700838416418
C         5.74471936110339   -2.02194465490296   -0.56856287967148
N         5.86448182181157   -2.87165774174549   -1.52674384198845
C         6.28119857042976   -2.37918995622266    0.76029167394515
C         6.24331169246270   -1.56990260279603    1.83521287954708
C         6.72716618361914   -1.84507095699049    3.23370592915954
H         0.88492647248623    0.86136030369330    1.19450724348851
H         0.49542933682852    1.50367215645294   -0.50982439135542
H         0.80643584236713    2.50843607838650    0.94341845365576
H         2.23233472691455    1.34305467975599   -1.84651335365226
H         4.97455192040205    2.29919364368702   -0.19493651105431
H         4.65339571075217    2.59910555887054    2.62365041575589
H         6.33439059106550    2.82440799860179    1.99145843947528
H         6.99700005827099    0.96240002856913    3.11295590051774
H         5.34492987195131   -2.54759469186279   -2.35227851665718
H         6.72019782779847   -3.36769201340968    0.85395560758845
H         6.49170224672433   -2.89213694033851    3.46016145275955
H         6.30269557641502   -1.14029143425101    3.95480580847292
H         7.81689784784695   -1.79400030967592    3.32167551344380
