30
 energy: -48.316594259932 gnorm: 0.134672772076 xtb: 6.4.1 (79825abcba525fcdf90b791dcacef51065a7a4e7)
C         1.04725846963609    1.56802245424205    0.03573954463459
C         2.49580901920403    1.50556425670757   -0.32441086510830
N         3.11934500948235    1.41683487732785   -1.44710217980249
O         3.31866772485158    1.88002193774221    0.67357198925902
C         4.72812849480385    1.65103347348098    0.50230214855712
C         5.50026667170491    2.34134281690757    1.62714378013668
C         5.99461729700891    1.22241449006243    2.56708975115338
C         5.12678544563970    1.16345337430781    3.75114673304220
N         4.32190436731698    1.14060588762652    4.58862185724301
C         5.86068659268327   -0.02287808642648    1.72355724811701
C         5.12073853130184    0.21325996788195    0.63252930879015
S         4.62176809481068   -0.98199674875720   -0.48922934123293
C         5.43896375789801   -2.43832635624948   -0.00827668330432
N         5.47470679126614   -3.48287858794212   -0.75800952207221
C         6.14162555123815   -2.42831776375674    1.29074412068902
C         6.33591393248331   -1.35352104537309    2.07744696391869
C         7.30560045711389   -1.46898919420844    3.22286871646543
H         0.82404136726747    1.98912205957627    1.01922208636419
H         0.66666117534393    0.54395847791717    0.08143726565934
H         0.47581729890389    2.12967543130138   -0.70866757239312
H         2.45729518490646    1.12715712632879   -2.17526393780873
H         4.98901106040930    2.00054870780579   -0.50384785537922
H         4.93743122698032    3.18006258793158    2.05524975116055
H         6.38020592249709    2.78172152887884    1.14061485251281
H         7.02533531927685    1.35469159515111    2.92059239061984
H         5.09674465484168   -3.32303693161740   -1.70037562788132
H         6.63956597243842   -3.37804669535260    1.46015489603585
H         8.13145231686408   -0.76498847049591    3.06341879942630
H         7.65313844582323   -2.47344685222295    3.48201484936690
H         6.81223712864302   -1.09282813357646    4.12451026787253
