30
 energy: -48.300777001293 gnorm: 0.142633832009 xtb: 6.4.1 (79825abcba525fcdf90b791dcacef51065a7a4e7)
C         0.93166696155857    1.94004940764076    0.50697010558189
C         2.32446576747063    1.94734531874691   -0.03336893412629
N         2.78052173780049    2.72193609805500   -0.95485028767361
O         3.23477969608157    1.26850738355999    0.69036607555220
C         4.61595558446052    1.32135318199062    0.29298824429513
C         5.24844736602454    2.13655482688183    1.42143557653827
C         5.69967712347242    1.10817156777449    2.47912221807711
C         4.61161518562955    0.96898669044418    3.45654131960272
N         3.81627840817712    0.90661536953941    4.30109403701406
C         5.88098256219829   -0.16017320009495    1.67995532788007
C         5.31987867943930    0.01401561000406    0.47644103434108
S         5.07280112390971   -1.15469334316389   -0.75198251171199
C         5.82026943002952   -2.58799635536989   -0.11405336903395
N         5.95105649532182   -3.70540176254491   -0.73756442825418
C         6.52786259167950   -2.45256556950094    1.17523287220306
C         6.55082418976712   -1.40729647305778    2.02300780523788
C         7.38765926612996   -1.37975928135698    3.27383328161199
H         0.24434506267688    1.22169857087708    0.05315368760731
H         0.43035668966491    2.90432896695783    0.38654357476753
H         0.90101867146051    1.74574805958907    1.58281800328097
H         2.08713938710750    3.29537037643539   -1.44763498416034
H         4.56734222151450    1.79907015102516   -0.69290303194968
H         4.49623640416246    2.85003732815496    1.78008674983239
H         6.22520410410254    2.58419689364026    1.19671415563227
H         6.60833896139856    1.51979137668689    2.93710004865038
H         5.22249810905308   -3.74114957039464   -1.46170761966680
H         7.06723050605151   -3.33465888903847    1.50632687962466
H         7.15099076191992   -2.29819219297817    3.82477933532466
H         7.15388117757727   -0.65111188352298    4.05568702699923
H         8.47503415250853   -1.44720831676835    3.16929409203030
