30
 energy: -48.313778152814 gnorm: 0.118505244909 xtb: 6.4.1 (79825abcba525fcdf90b791dcacef51065a7a4e7)
C         1.23397736658573    2.29443342762876    0.71492996369127
C         2.61732896540093    2.46441155174883    0.17701378835453
N         3.13108372830782    3.51435238619219   -0.36223206798261
O         3.33035986890150    1.34784673978903    0.41816664976789
C         4.73349653539130    1.26870965390328    0.11272686016495
C         5.60836143166222    2.02430880283778    1.11356365339482
C         5.84953665013215    1.01152896619144    2.25198052223999
C         4.77159966349761    1.03496228842892    3.25002963650748
N         3.96559815247377    0.91440443547223    4.07800755156080
C         5.87870419099288   -0.29405502535583    1.49380011883636
C         5.18732986641860   -0.13566861662056    0.35778020973620
S         4.82116697286457   -1.37628272518764   -0.76594292980963
C         5.47416835339824   -2.79217906712708    0.00142055784119
N         5.54324096656489   -3.90636571238383   -0.63754988555952
C         6.06084592942850   -2.68611000761912    1.35265974976664
C         6.31714405280471   -1.56555971613420    2.05302777045447
C         7.10423319267604   -1.54136001801289    3.33580626451739
H         0.61608027011400    3.18857376274303    0.60045333920287
H         1.39217969649387    1.96255454596350    1.74472510710813
H         0.86860534644418    1.39495366973711    0.21136220970323
H         2.59714027768165    4.37921763077206   -0.22310905455004
H         4.81741436695939    1.49652272138273   -0.95667361515394
H         5.04490476710898    2.89960120339256    1.45981366965527
H         6.59504780477948    2.30435073751297    0.72245833096356
H         6.77849085216529    1.20020682336012    2.80541132465085
H         5.09724927444297   -3.86379794758018   -1.56261095494053
H         6.48566663023595   -3.55924995385101    1.83823530084995
H         8.02230804918851   -2.14098243159390    3.31003694087505
H         6.45855320814021   -1.83106548947566    4.17009794388460
H         7.41638924434700   -0.52558423086593    3.59776067218585
