30
 energy: -48.311839379549 gnorm: 0.122956639080 xtb: 6.4.1 (79825abcba525fcdf90b791dcacef51065a7a4e7)
C         0.82375327596858    1.70095759925036    0.09837353152008
C         2.27686225477186    1.68755579643024   -0.24832909383737
N         2.74431463719957    2.27206258632730   -1.29568094107052
O         3.09352634543511    1.12192896748898    0.66074230604436
C         4.47480378133214    1.34723806303862    0.32959715728096
C         5.26047635607157    2.17878779636919    1.34411013978469
C         5.77094681739068    1.23825934244171    2.45528410331972
C         4.93530976843679    1.25699768193238    3.66357168740120
N         4.46490912608715    1.46496143381297    4.70529831564315
C         5.80054864865132   -0.06598081019438    1.69481111425760
C         5.11949083682825    0.01438001462653    0.54445102528547
S         4.91901727325051   -1.27610162873504   -0.56479187045180
C         5.86527637872980   -2.58321477735145    0.08024216032475
N         6.11591814020002   -3.63211193041319   -0.62079964166106
C         6.48487670407098   -2.43779744342836    1.41299788624876
C         6.44750643020118   -1.29736685513541    2.12704171036613
C         7.32965387367636   -1.16752169849965    3.33971303411115
H         0.20102904260568    2.38252401141474   -0.48649432855086
H         0.59333960392508    1.77872400947149    1.16444648013989
H         0.50504194415118    0.71561155691491   -0.25327586080183
H         2.03203483825760    2.78010056833438   -1.83140251999064
H         4.53826108116255    1.73296994319957   -0.69497224315075
H         4.75059620092328    3.05756725356414    1.75796779802278
H         6.14985262016607    2.59875261395344    0.85669217507669
H         6.78842439809503    1.53174029105823    2.74415985212204
H         5.62785069420182   -3.77466215655640   -1.51406790277098
H         6.95348706590186   -3.38763735644617    1.65140525420778
H         6.81423589875077   -0.64725375787009    4.15625337339563
H         8.13838480349726   -0.50279592270148    3.02195771839374
H         7.60331495028731   -2.16663246548629    3.69291164015096
