30
 energy: -48.316645304861 gnorm: 0.123502040411 xtb: 6.4.1 (79825abcba525fcdf90b791dcacef51065a7a4e7)
C         0.96450626623429    1.89657027313627   -0.54246830300045
C         2.45247119267169    1.82164703645934   -0.65317018153188
N         3.23257980319158    2.04042396318776   -1.65350663372385
O         2.96314847385185    1.46908946869034    0.54190162658567
C         4.39060066123816    1.47348705753946    0.71714305015612
C         4.71246614507689    2.03492726280110    2.10248793475733
C         5.90219328449048    1.18468395347762    2.59393182141290
C         5.68005340358403    0.93235528718118    4.02417076242844
N         5.43790826268045    0.83708074476675    5.15642892920179
C         5.80907158096751   -0.10408460359635    1.81249610970896
C         5.01895580513249    0.11624023273242    0.75381770088591
S         4.59351269689207   -1.01621969111714   -0.45964223174417
C         5.44975456939853   -2.45566088340480    0.00390807824697
N         5.38803957433315   -3.53545685626152   -0.69229451753211
C         6.33067030273242   -2.40809051085055    1.18839662532262
C         6.52608462749162   -1.35708319926684    2.00634156323920
C         7.61021260060383   -1.41173192291175    3.04907626896289
H         0.53605060965698    2.32846791182095   -1.45036633596568
H         0.58966879240815    2.34755309046482    0.38044067010907
H         0.55244153341621    0.89364042819128   -0.39937598173978
H         2.90701382606949    2.46470477476508   -2.52896953957976
H         4.80121731415212    2.02754400329756   -0.13548420581269
H         3.89530955280615    1.93306556532015    2.82732486075886
H         5.06544796176452    3.07275592967557    2.15951731671526
H         6.87404706353878    1.69477665417900    2.60603805210716
H         4.70935979332114   -3.61685173196293   -1.45990588644339
H         6.98570829651474   -3.27374531772517    1.20241769467179
H         7.12637993200053   -1.20807620001990    4.01214575990822
H         8.27736258668866   -0.56413951116441    2.86639482176551
H         8.16527048309694   -2.35373470913911    3.09810132707901
