30
 energy: -48.313515772843 gnorm: 0.119815363001 xtb: 6.4.1 (79825abcba525fcdf90b791dcacef51065a7a4e7)
C         0.80542647372319    1.58643264443910   -0.22350690545674
C         2.26393678924841    1.89641339286926   -0.31606832313115
N         2.76255140589209    2.96029640799642   -0.84203619450176
O         3.08341676944905    1.08381108037252    0.37777229045781
C         4.48724161998722    1.39304335772855    0.33305278004069
C         4.95110190952999    2.15214349792853    1.57667392394882
C         5.76666682299350    1.16720348253476    2.43959250570679
C         5.18067474121196    0.85881842882126    3.75112262331894
N         4.83217762600465    0.74518755718115    4.85355531947052
C         5.84674552297704   -0.09292930575812    1.61140738839582
C         5.20065936694948    0.08335922071174    0.45161388261997
S         5.04897399799080   -1.17090379055567   -0.70586966926088
C         5.67738002011619   -2.59243617466733    0.07154368680749
N         5.76699359133306   -3.75646996755912   -0.46832747587979
C         6.39372167716999   -2.39412568689910    1.34779450944651
C         6.54415636114890   -1.27974088154762    2.08762757037706
C         7.39459096811851   -1.14664961572324    3.32240013952035
H         0.24553908276194    2.26628344188763   -0.87059087315369
H         0.49504225825226    1.71122549226833    0.81752046706839
H         0.52730651026530    0.55741192855462   -0.46826532217843
H         2.04813810913825    3.62639970308991   -1.15566456472658
H         4.74335215276936    1.96634918022832   -0.56599460194862
H         4.14786334879163    2.38249532908096    2.28748692461621
H         5.59141224148442    3.00953251569660    1.33208527781241
H         6.77563065633817    1.45682852260071    2.76045107429574
H         5.41198859660383   -3.82286834156607   -1.43062747858143
H         6.98695022846700   -3.27533659253063    1.57179637065694
H         6.80521428150842   -0.64358056363505    4.09869209159982
H         8.19183693279802   -0.47138758593640    2.99790888059191
H         7.82797880309667   -2.08632731847932    3.67883071828456
