30
 energy: -48.311104596420 gnorm: 0.130272442652 xtb: 6.4.1 (79825abcba525fcdf90b791dcacef51065a7a4e7)
C         0.88297123264832    1.76554551978979    0.25824453053041
C         2.32309838887995    2.15066459352775    0.16013695967225
N         2.84208502575157    3.32844141424474    0.13563309043867
O         3.06223883699791    1.04024598820483    0.34432890973721
C         4.47683157385349    1.21875367543277    0.15615068286315
C         4.97330781286480    2.07687697643737    1.32025063291043
C         5.60169096844967    1.12856846379282    2.36223289056169
C         4.59197797114828    0.85529920905168    3.39393192455554
N         3.82484487833997    0.64439020590141    4.24053943571688
C         5.81823848850353   -0.14007495658849    1.57236652370627
C         5.22824395016699   -0.05665483654800    0.37296105198233
S         5.17176385257992   -1.28254845484744   -0.82284293342493
C         6.05021914198298   -2.58635000808453   -0.08227706837844
N         6.13388605863290   -3.76416235280095   -0.59239869436457
C         6.81162814040541   -2.33851290039383    1.15873933201032
C         6.65020414132811   -1.27046840951139    1.96189580583744
C         7.30815656787313   -1.23936038025927    3.31531610787384
H         0.38827319375519    1.76193891915562   -0.71625508544267
H         0.27751286131539    2.39000709249310    0.92090395387575
H         0.72458499402285    0.77734283208043    0.69927772435604
H         2.20732711696927    4.13155123873821    0.06825564628142
H         4.53067887453339    1.73252395976098   -0.81116463846899
H         4.11715661669650    2.59069099013339    1.77468386577148
H         5.68922133674343    2.85165607940519    1.01673453100954
H         6.46051705738634    1.50966021062368    2.92970776085135
H         5.76059960612270   -3.82603214956965   -1.54805969152439
H         7.38330772858508   -3.16921999166246    1.56090570461982
H         6.93846552995948   -0.55267880703532    4.08659393933848
H         8.31822647492318   -0.94920279778231    3.01127354799171
H         7.45354946519282   -2.20930421970613    3.80104423638158
