30
 energy: -48.306701271117 gnorm: 0.135674258629 xtb: 6.4.1 (79825abcba525fcdf90b791dcacef51065a7a4e7)
C         1.03464471280189    1.23610674044153    0.83902107659068
C         2.39092826268707    1.43320824077058    0.24441704723124
N         2.79056720671030    1.38921516227458   -0.97847261664457
O         3.28352154215963    1.61554851310644    1.23603895825056
C         4.66611034286190    1.76690251871432    0.87013075037690
C         5.43707698372939    2.15982277961611    2.13077227535466
C         5.71186765566944    0.81248682694363    2.83009864183199
C         4.48549299658975    0.60453176341287    3.61199326407440
N         3.69378784153591    0.55449256611875    4.46076831777817
C         5.73682369822256   -0.15437300303788    1.67044478040693
C         5.25958305817864    0.42832701885504    0.56304783900556
S         5.34504132158612   -0.22245836945119   -1.01971164100051
C         6.15538632966480   -1.74299454651160   -0.79314891434527
N         6.40073678078477   -2.62482193629035   -1.69683566407033
C         6.35237992207766   -2.23944343373870    0.58381172461585
C         6.18284956603151   -1.54007125421677    1.72134196355298
C         6.53295408279005   -2.03061103049900    3.10062190418222
H         1.07325920125801    1.20416250038953    1.93075233720572
H         0.72693783728761    0.29122702579455    0.38276631170790
H         0.46167668998166    2.12485282596628    0.55977374714564
H         1.97329933914430    1.17893141627465   -1.56182216184972
H         4.80524473594859    2.49437833373594    0.06144111589356
H         4.83233344174029    2.85858878002752    2.72197494534354
H         6.35422173044729    2.64868993347031    1.77751418778735
H         6.57232866635176    0.79555511447748    3.51139230481470
H         6.09646955271983   -2.35300997453322   -2.64023287426295
H         6.98463258065952   -3.12139026725147    0.55131616870774
H         7.29456094935600   -1.31936028747829    3.44289359240453
H         7.04228927589360   -2.97862196396262    2.90382900796589
H         5.77641611624325   -1.97494039802444    3.88955348556222
