30
 energy: -48.312415051405 gnorm: 0.116792906513 xtb: 6.4.1 (79825abcba525fcdf90b791dcacef51065a7a4e7)
C         0.84342801135294    1.81452374230095    0.17829138705757
C         2.29689588787723    1.94809300021774   -0.14029676225656
N         2.87795523639589    2.90528550151884   -0.77532302821885
O         3.03795989115537    0.90745541070524    0.28535838880700
C         4.43435519504716    1.21765410719135    0.13634304189270
C         4.97638752007365    2.14499107466370    1.22457098208313
C         5.60112927908552    1.21333016415107    2.28362108265208
C         4.91557539230291    1.09201712967545    3.57741330411402
N         4.50846120105215    1.10048165373565    4.66548795430124
C         5.79148819296122   -0.11421021414397    1.58961974801525
C         5.20244349597190   -0.04109962515089    0.38907523054658
S         5.13976995827556   -1.39398255347068   -0.66055905962567
C         5.88469923731393   -2.72931497354483    0.16526639068057
N         6.06421227415718   -3.90156754149922   -0.33279497496761
C         6.45308621267420   -2.46559986558225    1.50268150136312
C         6.47494382107456   -1.27839953289528    2.13664889946072
C         7.30630461944033   -0.94558395113200    3.34647889678107
H         0.44641973318433    2.83189748509016    0.21980950309875
H         0.75276098773237    1.26548980579461    1.11956224839746
H         0.28546632079131    1.28140227549526   -0.59669331238288
H         2.14382452310442    3.51696809779700   -1.14860470567008
H         4.48980114705958    1.71078430465060   -0.84156631986715
H         4.15553324743373    2.78592180561596    1.56941200054253
H         5.76780737612176    2.75314912368172    0.76769544690869
H         6.54147382921341    1.66275694415656    2.62801707201499
H         5.54058839905832   -4.03030101820430   -1.20784029815841
H         7.03359866654468   -3.34031135863695    1.77929441407496
H         6.86178599324462   -0.15609539060039    3.96468884969768
H         8.26011532192781   -0.55089991320400    2.98406453828441
H         7.65732595526133   -1.77871607582049    3.96335557971347
