30
 energy: -48.304331807282 gnorm: 0.140800637524 xtb: 6.4.1 (79825abcba525fcdf90b791dcacef51065a7a4e7)
C         1.19031121522899    1.46619467831882   -0.95409011057357
C         2.63450675726524    1.74078281502506   -0.68799123197773
N         3.40107699444115    2.13809115070051   -1.64278019568803
O         3.00667024587027    1.54283115857566    0.59091229596100
C         4.42861508504866    1.63155289899067    0.78725377420455
C         4.64795892009792    2.06115506950175    2.23822696615873
C         5.88590517115238    1.25360102338042    2.68007193932235
C         5.82625336319429    0.69638422165682    4.03821420042897
N         5.61978782574293    0.34708314547884    5.12682836542689
C         5.90104494378101    0.07941097669465    1.73071092303531
C         5.05383334791489    0.27444946677410    0.71197717575146
S         4.36997261900858   -0.91418419991624   -0.31536738180403
C         5.21474278518369   -2.35897699806666    0.15256115485652
N         4.97714643738075   -3.47244144892015   -0.44594618094961
C         6.34934640363288   -2.25998509968631    1.09286101059218
C         6.60601016371370   -1.18808350989267    1.86551082935761
C         7.71362966525463   -1.25704602400659    2.88238782253031
H         0.66478231745848    1.98489860968860   -1.75979121365706
H         0.69705787259512    1.81235955367142   -0.04166442816805
H         1.09754008547348    0.37661068200247   -0.97256342203257
H         2.95764951296144    2.20206858598790   -2.56566787537996
H         4.82591043585469    2.32079896750898    0.03249909033981
H         3.82291555835539    1.61707724831037    2.80884734270161
H         4.76645759604366    3.14591813313260    2.35732361804451
H         6.85239138464535    1.77344209070432    2.65747635003280
H         4.04109080540671   -3.42074813195158   -0.86735601086318
H         6.78712330126368   -3.21099304070588    1.38020208166900
H         7.43911852330502   -2.02880273971184    3.61184498278725
H         7.91748502129981   -0.39457303198382    3.52383761278353
H         8.62854847345213   -1.64148965057011    2.42088090393559
