30
 energy: -48.306726517760 gnorm: 0.120823622696 xtb: 6.4.1 (79825abcba525fcdf90b791dcacef51065a7a4e7)
C         0.89399551916781    1.71112102316039   -0.37644554218129
C         2.37736610163282    1.83929777552788   -0.25360232032677
N         3.13660461444483    2.27883960523423   -1.19565628315024
O         2.90596763559350    1.48853479061123    0.93418154122665
C         4.33333645687189    1.63113868278716    1.03728842299891
C         4.78771238376597    1.94239202355849    2.46370239462999
C         5.68789724401942    0.78691630049486    2.94787644262224
C         5.37119287203124    0.14268137590141    4.22977308463802
N         5.12446503343407   -0.50463557516648    5.16241781671683
C         5.63200775421479   -0.21680110430270    1.82108206104525
C         4.92829085317794    0.27988481554526    0.79555215885143
S         4.96736256480335   -0.40327247620703   -0.77534626445393
C         5.80329079942221   -1.91430109673632   -0.58031682709184
N         6.04292407796757   -2.70168479859814   -1.56878480344569
C         6.40239500835189   -2.21345751936757    0.73606768364318
C         6.48106536029678   -1.40025248844904    1.80580859672576
C         7.24480479459125   -1.79843648225619    3.04021825408783
H         0.59312365289301    2.34321504766574   -1.21568443738163
H         0.36213117693639    2.06008025317336    0.51293479475941
H         0.64091909844453    0.66434129658762   -0.56709065772266
H         2.66730564637501    2.71118683452287   -1.99894767791500
H         4.62015326984159    2.40727406586882    0.31762992514979
H         3.86912323089473    2.10283952020771    3.04159497894470
H         5.34766411884659    2.88612369656750    2.49129655670813
H         6.74121768724111    1.09556889553573    2.93836178328948
H         5.66499066531641   -2.59906627715559   -2.51909757181697
H         6.66556109289183   -3.26365815743817    0.81639107540686
H         7.93832606985701   -1.03085151684731    3.40479212018826
H         7.76014662543790   -2.67202256945070    2.63016378833879
H         6.70041481478877   -2.20481789695527    3.89832993395191
