30
 energy: -48.312244840750 gnorm: 0.124629600634 xtb: 6.4.1 (79825abcba525fcdf90b791dcacef51065a7a4e7)
C         1.24346875492316    1.25625298265714    0.59189083963014
C         2.48646123973857    1.52389513636074   -0.19248496029432
N         2.72885546659436    1.48552651249134   -1.45616162284362
O         3.49241918330652    1.77031907023288    0.66810125713677
C         4.81036716914476    1.54198635777010    0.13968285939298
C         5.74890329833411    2.30539109624497    1.07475300432599
C         5.95744582368483    1.33878028645867    2.25883709266426
C         4.98047234377332    1.54341333857522    3.33691297503669
N         4.23640180736160    1.66031175246245    4.22145463097861
C         5.76593468933479   -0.03282992237137    1.65696747430720
C         5.16368723476555    0.12656839106750    0.47142267641358
S         4.80228331240752   -1.10251017114910   -0.66642866409053
C         5.56695691248110   -2.46009434243924    0.10315540916486
N         5.76472920593763   -3.58790101761947   -0.48285183002589
C         5.98403869040205   -2.35370991278166    1.51595899522455
C         6.18018932851341   -1.27445490159302    2.29606852905895
C         6.83753311945703   -1.30683141551691    3.64975489226543
H         0.86116894585784    0.24811496083657    0.41330403612616
H         0.47693874021095    1.98079842545194    0.30359368893301
H         1.50942448967951    1.48151699678931    1.62855120065865
H         1.82862344483744    1.32671887909038   -1.92178503024970
H         4.93409107962502    1.85263587041425   -0.90470582222089
H         5.44524751925674    3.31120267695376    1.39041982776867
H         6.73148074315719    2.41665657296951    0.59820452848453
H         6.94149613612459    1.33265881937637    2.74509679090855
H         5.47501154612933   -3.59448904198355   -1.46899527033093
H         6.15495742204589   -3.34775790582383    1.91756215014145
H         7.05237106525324   -2.32483731271668    3.99700299725500
H         6.40841668119439   -0.62885834578773    4.39345252093585
H         7.89269174436151   -1.03414984717363    3.54902231806213
