30
 energy: -48.307374728580 gnorm: 0.128591445142 xtb: 6.4.1 (79825abcba525fcdf90b791dcacef51065a7a4e7)
C         0.92845709477776    1.94971810651231    0.06123948542663
C         2.38639920499175    2.19366358804830   -0.15510150767421
N         3.00326676094694    3.18249047696329   -0.70172899399953
O         3.14228358668917    1.17154163529726    0.28895959973365
C         4.57015048155400    1.33094456128505    0.22465190676340
C         5.21929719197872    2.08053062739162    1.38857725378146
C         5.81765497849261    1.09239963431378    2.41104805407179
C         5.13963181570777    1.04383479549335    3.71355537669521
N         4.61594826783303    1.12696320437121    4.74726967833507
C         5.79508941641995   -0.15614946013615    1.56201697908089
C         5.15840676629122   -0.03466578946719    0.39005159919748
S         5.02415838033766   -1.34079202179993   -0.71084074466015
C         5.60587304556548   -2.75223789204575    0.11948966378182
N         5.60980208457602   -3.87360793894792   -0.51057376373146
C         6.19823277478684   -2.55306274927065    1.45767044636476
C         6.45899294974456   -1.36423819493698    2.03259423472719
C         7.29401000118483   -1.36172653642271    3.28493437231820
H         0.70408333802790    1.11310290301918   -0.60518386151959
H         0.29414583190521    2.74269796032438   -0.34432404756951
H         0.60020934594841    1.62016839268073    1.05108363043180
H         2.41970380707246    3.99665797294258   -0.92315229921087
H         4.81665118328729    1.79830176591804   -0.73627109353922
H         4.45720058366404    2.69646209775299    1.88187883797951
H         6.05339163259668    2.71678652458528    1.06546465337159
H         6.88493603885672    1.31153413626766    2.54421000457487
H         4.90625876761621   -3.85697603102409   -1.25971244916088
H         6.38385266291966   -3.55268430139843    1.83836929889598
H         6.70873907875831   -1.31247681115795    4.21127391692896
H         7.96764653726582   -0.49975497684214    3.29459646884697
H         7.84975333443687   -2.30257131268261    3.34676007790582
