30
 energy: -48.313914613504 gnorm: 0.124642252179 xtb: 6.4.1 (79825abcba525fcdf90b791dcacef51065a7a4e7)
C         1.12732201740546    1.92212988133636    0.58428778070401
C         2.43299500809630    1.46562936428182    0.01972303157516
N         2.62650306364838    0.89016720700085   -1.11539976332590
O         3.43578408899338    1.90046804858277    0.80624331526293
C         4.77540345538679    1.67687020288309    0.33319714390601
C         5.65945822308126    2.32273800817405    1.40057476102694
C         5.87832757296119    1.20002279273742    2.43570195589403
C         4.81426478104647    1.20234016208180    3.44879842823783
N         4.13779090469924    1.14330330568829    4.39146373402017
C         5.84100532923843   -0.05589922164582    1.59814298300633
C         5.15288017095380    0.23740025375589    0.48724900415995
S         4.94154063138062   -0.94153230356156   -0.73806980303925
C         5.81251782643546   -2.35375762395948   -0.22131212462247
N         5.98284658015161   -3.39650069849894   -0.95489323726636
C         6.20052833155780   -2.40927625749638    1.20264515398922
C         6.31882077895211   -1.35992760669540    2.03733768157359
C         6.76851018208535   -1.58581602081894    3.45591785147286
H         0.19612894688061    1.67229414324355    0.06965176218867
H         1.25347316004967    3.00419906733035    0.67842478227501
H         0.95588189029943    1.64243224339605    1.62760870350329
H         1.81551051438311    0.70588324399340   -1.71604376911610
H         4.95525346794284    2.03537045405778   -0.68743500331887
H         5.17549947298763    3.14710243066385    1.93882798377768
H         6.60447746377573    2.69815652561673    0.98713013046086
H         6.82416902723945    1.25242447718885    2.99020983421175
H         5.78123280111342   -3.34827509306436   -1.96161305203071
H         6.41100055316971   -3.44221738381075    1.46219049799979
H         7.41468976470824   -0.78484534677243    3.83535232129841
H         7.25462839991508   -2.56491146940002    3.49991481116825
H         5.95024691390264   -1.74588568346274    4.16492062564644
