30
 energy: -48.310955685228 gnorm: 0.136313988795 xtb: 6.4.1 (79825abcba525fcdf90b791dcacef51065a7a4e7)
C         1.04551461520569    1.50431952654994    0.00136005915318
C         2.49727362271513    1.58227315617815   -0.34248155256962
N         3.00382761392673    1.62866540137638   -1.52500285722288
O         3.27978451082213    1.63085605475613    0.75232491101520
C         4.69780500679485    1.73776971688970    0.53753182289396
C         5.32007846444821    2.44051101341251    1.74456266725887
C         5.99799028366145    1.28659493499552    2.51189233584536
C         5.17674910480801    0.96106551170262    3.68585697467539
N         4.59227224470415    0.75111034602274    4.66770511007793
C         5.99452961045315    0.05013346437907    1.64506526705918
C         5.26580876743967    0.35393299311224    0.56326212210416
S         4.90198681671112   -0.85858087471693   -0.59146567288086
C         5.46757725638136   -2.40864610022141   -0.04609846568811
N         5.15318126810020   -3.53159274561546   -0.58888042409790
C         6.13646009858458   -2.41605257448461    1.27065120831552
C         6.36342094511549   -1.31189633916289    2.00629046155212
C         7.20408598836335   -1.52922938794952    3.23578811183150
H         0.59874126607472    0.60009206203640   -0.41953770619005
H         0.42669827201231    2.25523151828423   -0.49748573273252
H         0.84806657919930    1.53536087317136    1.07662362774302
H         2.39626129445856    1.42259105182772   -2.32552721405270
H         4.92052364128698    2.27500187481445   -0.39216514946428
H         4.58342553054817    2.92089279082408    2.40037141526291
H         6.04288314824071    3.23587689928653    1.52121676410774
H         7.01156149076946    1.45692563771808    2.89725170940351
H         4.68326273893735   -3.41909255000216   -1.49606226407658
H         6.61019744978895   -3.36502103503570    1.50230073218227
H         8.28113470379332   -1.45167545556211    3.04337178204292
H         7.08436970336232   -2.54923218270555    3.61279854092255
H         6.88180292743097   -0.93630570031569    4.09743603284987
