30
 energy: -48.304398441273 gnorm: 0.140775165558 xtb: 6.4.1 (79825abcba525fcdf90b791dcacef51065a7a4e7)
C         1.05794756428006    1.78936094841631    0.87590789927443
C         2.39986619498672    2.03763542356624    0.26802452413148
N         2.76658741660252    2.92908085379501   -0.58517322568789
O         3.22789916672218    1.04734937995207    0.65140385039558
C         4.53586332061716    1.17766748019176    0.06779814229389
C         5.33624322926621    2.12411489030795    0.96313174070311
C         5.75423182335770    1.23426836112550    2.15197157295614
C         4.58382785746653    1.41918277533281    3.02062601029790
N         3.96081565030309    1.55921821461636    3.99117530477716
C         5.75286979781777   -0.13922885970257    1.52448344780091
C         5.12187766269648   -0.17096533539124    0.34360764432164
S         4.99285650482020   -1.51796566490120   -0.70753267595582
C         6.10695114041562   -2.64999641470836   -0.00232384288134
N         6.56927042877663   -3.67234940244036   -0.63122874879998
C         6.60679513986361   -2.46736310105107    1.37538789527459
C         6.42429152510966   -1.31880686230221    2.05314009328169
C         6.71716707117422   -1.31501691625832    3.52956319014184
H         0.80115716595172    2.52485173157048    1.64239381460597
H         1.12383381269626    0.85117675305870    1.43368834438192
H         0.26695559476933    1.73762859278581    0.12238517326967
H         2.02154319879760    3.56566153309806   -0.88868082953848
H         4.62235613368102    1.48244236507879   -0.98205405345056
H         4.81035962454588    3.02578884140457    1.30068143062414
H         6.20641825700609    2.53825063973628    0.43756170652186
H         6.68773588053726    1.50179666222504    2.66367429573361
H         6.27982547275502   -3.70310953878874   -1.61699445039214
H         7.07607605287975   -3.36604287932764    1.76369149254151
H         5.78217874038778   -1.70003982659904    3.95456522594143
H         6.91585073894112   -0.31262081280870    3.92020542925232
H         7.64710106735387   -1.84472814033422    3.75867177516698
