30
 energy: -48.308781732615 gnorm: 0.124627647255 xtb: 6.4.1 (79825abcba525fcdf90b791dcacef51065a7a4e7)
C         0.83725973778334    1.66728648272958   -0.09654275002550
C         2.30137681978053    1.96305454282032   -0.06842784587731
N         2.87519562013678    2.87789975597768   -0.76906757450036
O         3.05151813891546    1.04274032772469    0.56686303488410
C         4.45183818592624    1.18334614059946    0.27075085323556
C         5.20359959066966    2.16606387917433    1.16914585487538
C         5.72093820929032    1.23385070381598    2.28414396694379
C         5.03957859088686    1.19816011476810    3.58532594961800
N         4.56312385891493    1.48565242542829    4.60515883748799
C         5.74791474883764   -0.12833371986217    1.63301902185210
C         5.02347450040338   -0.17877187321287    0.50773315701856
S         4.64375061744039   -1.56208654423278   -0.42939150198688
C         6.01459390206804   -2.52960352385209    0.02306797904165
N         6.36884600439460   -3.54842702221677   -0.67762473597631
C         6.67798307340872   -2.33635404337001    1.32838711900204
C         6.57691632716508   -1.23379615477431    2.09388609977815
C         7.19608165952612   -1.21212457842327    3.46566605821506
H         0.35885157373843    2.41885802203596   -0.72951550529837
H         0.48538463789722    1.81290455912184    0.92845915093375
H         0.51001928732125    0.67337171256588   -0.41464359535337
H         2.28510882247397    3.55880875199188   -1.25958079899869
H         4.51200138183111    1.46673782944847   -0.78690122399623
H         4.58417337362287    2.98542654573919    1.55445774155605
H         6.12613355490344    2.53004839262226    0.69863207636630
H         6.72820937577554    1.56380959416129    2.56940320265970
H         5.75747852666093   -3.79103413091571   -1.46745394979471
H         7.35040895508728   -3.14611065185852    1.59440833329392
H         6.40476395093456   -1.51174196573360    4.16360463226186
H         7.61333399775889   -0.23531188809030    3.72760491357052
H         8.06002071757369   -1.86567630641450    3.62168337597688
