30
 energy: -48.308240353221 gnorm: 0.128542764863 xtb: 6.4.1 (79825abcba525fcdf90b791dcacef51065a7a4e7)
C         0.91854744032760    2.09207675919551   -0.35359743192821
C         2.38889679592807    1.97043861881812   -0.58851220822228
N         3.03776620648409    2.27695877749935   -1.65721220510125
O         2.97768336057136    1.38648251183664    0.47243566604636
C         4.40978996865952    1.32252606850705    0.58788638089909
C         4.86625770643409    2.03200876511799    1.86313711947257
C         5.92810722125917    1.12305524278463    2.51594685369098
C         5.38759188224732    1.02481490621457    3.87858815564794
N         5.16403374044674    1.16400092995114    5.01012210319297
C         5.88424180487948   -0.18234493367271    1.75815794665820
C         5.09313481905384   -0.00428722675509    0.69229157434926
S         4.61462126653710   -1.16231032154270   -0.47645117379002
C         5.62714347979244   -2.49837546809321   -0.01846790468393
N         5.64070331879799   -3.64280580422927   -0.60546149817391
C         6.41615028878334   -2.39835468423310    1.22602102195238
C         6.59537482006961   -1.40274224938322    2.11398020003533
C         7.49306962164127   -1.51259077472684    3.31718132500086
H         0.54725908499685    1.19181675755528    0.14245250954802
H         0.40290945631717    2.33832709163357   -1.28586769792008
H         0.71838100270053    2.95377199267408    0.28948557329795
H         2.45531704893746    2.77666759005680   -2.33801084923521
H         4.83276483908990    1.85493720774145   -0.27245599732201
H         4.02721827911407    2.17903822787372    2.55444345301751
H         5.29628056615439    3.01465714703423    1.62985755875506
H         6.99748889414745    1.35158832628286    2.61100666639783
H         5.14845048579406   -3.60637642830022   -1.50702604796938
H         7.05418908221684   -3.26940607531603    1.33918279239492
H         8.50316340999256   -1.19139802968053    3.03501416693871
H         7.45791553343305   -2.55081765330725    3.66029012316634
H         7.08881049263471   -0.92094764430486    4.14446297273155
