30
 energy: -48.309469005071 gnorm: 0.123521064175 xtb: 6.4.1 (79825abcba525fcdf90b791dcacef51065a7a4e7)
C         1.09548583828383    1.88932450236207    0.29586681410243
C         2.46702177303369    1.48755975399423   -0.13931395640478
N         2.85609979733727    0.82651158886804   -1.17311250334399
O         3.37640006362796    1.97591520001728    0.72545471880027
C         4.74714759604606    1.66986743694546    0.41604447836028
C         5.54199235227272    2.32047061677356    1.54870963418870
C         5.94612100909070    1.17870019563365    2.50417910131372
C         5.21453807445187    1.19717172219848    3.77816681438510
N         4.54365813959768    0.97811100438503    4.70101710542713
C         5.82083577001975   -0.04340470879620    1.62611229242677
C         5.06552998070403    0.21424891671924    0.55058728862454
S         4.66485478555613   -0.91345486095254   -0.67566559754890
C         5.68347381855724   -2.25395911890051   -0.24498738951302
N         5.95788171279181   -3.20739714905859   -1.06359747588425
C         6.11361080346890   -2.41469017833390    1.15873498094092
C         6.24031033094065   -1.38321957787736    2.01421901589364
C         6.86935205344007   -1.60897305371661    3.36290641966105
H         0.89987672717587    2.89756216169328   -0.07774067972250
H         1.05766646710963    1.95071656425913    1.38694440954059
H         0.31390783754530    1.15107206413700    0.09521736863817
H         2.14285191533862    0.28083314458045   -1.66905121922631
H         4.94425268804989    2.09766378978247   -0.57425764915688
H         4.81484821558570    3.02401444955399    1.97273414685694
H         6.42902209711775    2.89356708096400    1.24925084155921
H         7.01225578089739    1.20703989061902    2.76378359076649
H         5.69165480435384   -2.96163322734121   -2.02546125701581
H         6.40042521330103   -3.41309054878167    1.47427246559863
H         6.14642049425730   -2.10653729391933    4.02083679282310
H         7.28228165378177   -0.79239562910392    3.96254382282159
H         7.70423408894330   -2.31666722929853    3.36462342232433
