30
 energy: -48.309784343186 gnorm: 0.128593735870 xtb: 6.4.1 (79825abcba525fcdf90b791dcacef51065a7a4e7)
C         1.02018667609106    1.78201859306973   -0.67860638806468
C         2.51335919125972    1.77494778433547   -0.63071206265798
N         3.26754854431245    2.11738327340021   -1.61612677914572
O         2.92821792890500    1.47124759933941    0.61385339579835
C         4.36233637389548    1.50835123442933    0.71522524713244
C         4.80392705399586    2.00999003191301    2.09048854186929
C         5.90502445253222    1.10930804893294    2.68734524845047
C         5.70002863622116    0.80824752058306    4.11069993832290
N         5.58248052960047    0.71716131566482    5.26291771474852
C         5.73646840901142   -0.08625470294331    1.78045143202450
C         4.95437040612733    0.13438274392143    0.71590092616339
S         4.61402184576481   -0.98520286037257   -0.53575528074854
C         5.34758619131092   -2.43800407352377    0.07356563135285
N         5.20273446110325   -3.55592211560902   -0.54590460336338
C         6.26891076704649   -2.34880233547903    1.22443168516716
C         6.58319860326971   -1.25931741955054    1.94974736778571
C         7.65381129409494   -1.27313324830309    3.00767610290705
H         0.73463570842029    2.22985501881841   -1.63374608448074
H         0.57247187865531    2.31916965347576    0.16203015954583
H         0.63809755529161    0.75825916353520   -0.72405487678613
H         2.70729416947149    2.34058141634770   -2.44603059137209
H         4.71091567685784    1.98838393031284   -0.20706508349776
H         3.92109199246619    2.03712097069951    2.74116160711584
H         5.10418853806639    3.05752362299751    2.22259936929791
H         6.87075828048663    1.62701734900285    2.75196837513728
H         4.58525128832865   -3.53273148364930   -1.36726646847751
H         6.88220715157953   -3.23566369733626    1.35082031245686
H         7.13671198736528   -1.62167259786015    3.91000707283316
H         8.16486462696109   -0.30983996894929    3.09579567327645
H         8.44577586414858   -1.94263508701494    2.65778844319089
