30
 energy: -48.311774142413 gnorm: 0.122454569287 xtb: 6.4.1 (79825abcba525fcdf90b791dcacef51065a7a4e7)
C         0.84455195232456    1.75287991789704   -0.43887045301109
C         2.33212755329298    1.88906031559970   -0.46081929387751
N         3.01708333535357    2.43821675288447   -1.40229079692070
O         2.94058088224829    1.27895282431220    0.57399380456476
C         4.37524542694634    1.37835557196608    0.58832504808762
C         4.78976397277884    2.07555870968624    1.88450216087403
C         5.88459458256908    1.22974120390065    2.56701233197995
C         5.52141981387047    0.92857219012275    3.95841472930723
N         4.95214317873667    0.44880317411542    4.85030366489661
C         5.87884503019657   -0.02502272016718    1.72690979273259
C         5.01577618805790    0.03130488644466    0.70438090305042
S         4.71082977946422   -1.14186295749000   -0.50666708527186
C         5.68378996183015   -2.47726369671932    0.03191747537658
N         5.78652677783882   -3.61261519534199   -0.56380751198248
C         6.56471464241066   -2.29153523133105    1.20271431301475
C         6.63229167769459   -1.23364612020318    2.03225697731732
C         7.50966781757816   -1.13289531251011    3.25114007504619
H         0.38812980053291    2.54934367529293   -1.03192438067902
H         0.51679577168545    1.80074181748712    0.60321146850295
H         0.51939995649184    0.79472202844790   -0.85402183373518
H         2.48389317828424    2.79628700251467   -2.20225121186793
H         4.75156709399301    2.01974874435405   -0.21762480883527
H         3.86415677815581    2.12418947215092    2.47135447962316
H         5.11113790577263    3.09841681166570    1.64909410026367
H         6.88732416296734    1.66715596896939    2.47733169855607
H         5.21247518442815   -3.82627139923148   -1.38920098108175
H         7.25684346475382   -3.12276324219464    1.29570516841827
H         6.77037880769361   -1.21196968527812    4.05753424468501
H         8.11927295297764   -0.22486608482653    3.22395531634532
H         8.25620739439431   -1.92083824649709    3.11083126180603
