30
 energy: -48.306411788259 gnorm: 0.136191510066 xtb: 6.4.1 (79825abcba525fcdf90b791dcacef51065a7a4e7)
C         0.87720209915425    1.59678689065983   -0.38977432827488
C         2.31635415231065    1.99725536816990   -0.37042485581476
N         2.96776553268707    2.77968009977967   -1.15819422125232
O         3.05658755621259    1.22460633784288    0.44710359124310
C         4.47939526647584    1.41174857371573    0.54168014995518
C         4.76068708479361    2.04791837066188    1.90335409885317
C         5.83671060118062    1.15121403593405    2.54986496595450
C         5.64525654838033    1.04567482232694    4.00272638622297
N         5.35817483325030    0.97482126622094    5.12624052080929
C         5.82299451193464   -0.12155909889440    1.73740048020700
C         5.09087911216806    0.04912126386958    0.62902260260522
S         4.86544281116938   -1.03572761338957   -0.67797164072570
C         5.67077040856462   -2.47248502060595   -0.12371922752056
N         5.49407770698796   -3.59530875493224   -0.72580958448613
C         6.42244272296761   -2.41383619494850    1.14625630412546
C         6.45630688801852   -1.39999223031393    2.03102234461947
C         7.28996016650512   -1.62419221033102    3.26405617259201
H         0.73036293611365    0.95866998959453   -1.26477932375040
H         0.30346471707567    2.50485476719336   -0.59443931574610
H         0.60259092721734    1.18390028761925    0.58503559709499
H         2.32740849697865    3.34368143395266   -1.72765719373075
H         4.77154059429615    2.08633524089059   -0.27204116383876
H         3.95309255679650    2.17914014427740    2.63416271606477
H         5.06227309918170    3.09333692819999    1.75815488820810
H         6.79627489761166    1.67010917308986    2.42810624457457
H         5.13900960134577   -3.46026768796807   -1.68087458596869
H         6.89683235001846   -3.33279116924929    1.47656819959937
H         7.53916833643307   -2.66997059850323    3.48157730456502
H         6.99106722955460   -1.16315951745668    4.21009339630608
H         8.18850802466658   -1.00693956553111    3.16672723054920
