30
 energy: -48.307555012405 gnorm: 0.129159105040 xtb: 6.4.1 (79825abcba525fcdf90b791dcacef51065a7a4e7)
C         1.10913568985459    1.33862038686268   -1.07095216233221
C         2.54312496950886    1.71352459568704   -0.88379013498731
N         3.32458528419772    2.22199144867510   -1.77142016242901
O         2.89653752244295    1.47245157518395    0.39302941273437
C         4.28321766795878    1.48271868104977    0.77429245582855
C         4.72917081748365    2.09339971831475    2.10327233460422
C         6.00916319728073    1.32155525293289    2.48505394783119
C         6.07341142119139    1.23560234099470    3.95034700362117
N         6.16722303321322    1.38442807360561    5.09872430506429
C         5.77303501915029   -0.00992553789982    1.81301190311506
C         4.82839376380404    0.09273092668460    0.86922123359635
S         4.18470682168042   -1.20326991076889   -0.04838518240924
C         5.37677277850301   -2.45726891560099    0.11435810565767
N         5.34371473876857   -3.59495818584709   -0.48483847375285
C         6.37316840013873   -2.29263075631503    1.19203099059965
C         6.54106581736070   -1.23268382123867    2.00453346559973
C         7.43828184093677   -1.33652532469766    3.20862490271102
H         0.75841767591511    1.59100909913762   -2.07478754530688
H         0.41630511905648    1.90472504326728   -0.44233389220500
H         0.96675331051156    0.28727500412595   -0.80535626727294
H         2.86723439623193    2.32759663320506   -2.68362651369100
H         4.78571290127055    2.09460054155381    0.01557144537735
H         4.00521856371378    2.06616120157015    2.92708087540735
H         4.92589801498888    3.16284076714417    1.95316853764130
H         7.04074894414378    1.68686900040378    2.40009687233554
H         4.73701167064818   -3.62935009011096   -1.31380601975740
H         7.04034407223382   -3.14609650825108    1.26346309699312
H         7.82724631597559   -2.35870807503927    3.29182135257971
H         6.93117094950351   -1.09821821014487    4.14826463047355
H         8.31260946754203   -0.67900795078922    3.17569899967161
