30
 energy: -48.307188883632 gnorm: 0.137629496154 xtb: 6.4.1 (79825abcba525fcdf90b791dcacef51065a7a4e7)
C         0.92522170941920    1.93417390105202    0.92809933692901
C         2.20655594612882    2.05021886578925    0.16874160813305
N         2.64924305217388    2.96540052754813   -0.62092696707246
O         3.11432325188779    1.14176236440124    0.57364907235631
C         4.46281840319258    1.12940755522986    0.07389230059956
C         5.28472253218849    2.08742255558172    0.93683715254032
C         5.71122841984775    1.21224737670227    2.13351696886649
C         4.70796193784770    1.25730747846535    3.20590927698068
N         3.87169362842174    1.40166711880249    3.99934211722514
C         5.78647683381568   -0.18082599000401    1.55565703403524
C         5.19858128059653   -0.14302736342971    0.35292013809299
S         5.31331632346188   -1.38433151973638   -0.82264449055046
C         6.17502724622960   -2.66987183562409   -0.03216339415367
N         6.44425209357406   -3.82709618449548   -0.52492695745888
C         6.49207708112157   -2.44961996475509    1.39340916031125
C         6.38318438017721   -1.35758766379857    2.17279666937615
C         6.91278714569127   -1.31464928189732    3.58109096281162
H         0.75375085307570    2.97621920364708    1.20939631832464
H         1.14424661080224    1.29424839048425    1.78726930852301
H         0.05345628443358    1.65881496850072    0.32781312834311
H         1.92318202448146    3.65058721200605   -0.85714149728049
H         4.45831284890346    1.29982562272126   -1.00938779135366
H         4.62421102039236    2.95534006587031    1.05496000756439
H         6.19583329128028    2.28694730432509    0.35804192132709
H         6.69863574675201    1.50801739793254    2.51086000607181
H         6.00831978647323   -3.85465646442723   -1.45533656892573
H         6.94671085407882   -3.35984394847106    1.77213075182082
H         6.10018154841460   -1.73816871916269    4.18389771484503
H         7.11723716565549   -0.31608690792782    3.97851753320278
H         7.71775779626123   -2.04526262362515    3.70793086054041
