30
 energy: -48.305553357180 gnorm: 0.130221219665 xtb: 6.4.1 (79825abcba525fcdf90b791dcacef51065a7a4e7)
C         1.02030239172459    1.70143297241050    0.71638767221842
C         2.33981884247614    1.87744978564626    0.03830033087658
N         2.67377215651412    2.77254260703722   -0.82447996254472
O         3.16824564827866    0.98550663169005    0.61400094421152
C         4.51640514065802    1.24101156422665    0.18326683924742
C         5.21780869624879    2.20060015629965    1.14514819566914
C         5.69735803145123    1.24416207906959    2.25651676332733
C         4.64943985616512    1.23246630286206    3.28624003714137
N         3.96148877908107    1.06246433606629    4.20686086694771
C         5.78037364012775   -0.11353422963777    1.60076759001705
C         5.30889183210859   -0.01681685885124    0.35097695969987
S         5.10909458929826   -1.31420984253447   -0.75029723489607
C         6.00610263829892   -2.59544317483078    0.00722351605789
N         6.27900484910314   -3.65530087418434   -0.66856652301680
C         6.56859896557467   -2.37216841886864    1.35445580708639
C         6.43061743471069   -1.29542070886574    2.15032797951040
C         7.02642131165515   -1.20176213445331    3.52940789702394
H         1.10810039384895    2.31109400930969    1.61915762655137
H         0.82958830832782    0.63924927551451    0.89257944165526
H         0.27350358359872    2.09419360698528    0.02056322916349
H         2.05954631126301    3.36492306945640   -1.39391363878024
H         4.55902893864931    1.58418058038067   -0.85739478483294
H         4.53447628411958    2.99998176187446    1.45748637095023
H         6.08165390853904    2.58418718197826    0.58696426195291
H         6.71070929166210    1.54262366549620    2.55464560389107
H         5.73515015207934   -3.72217952287947   -1.53816867454838
H         6.98146179583421   -3.27436618190733    1.79515194840064
H         6.36810747507621   -0.74369192058663    4.27765057986680
H         7.93426388657952   -0.59222967019975    3.49525321037254
H         7.21862698269278   -2.18883708653052    3.96138240956016
