30
 energy: -48.316732735540 gnorm: 0.124647343696 xtb: 6.4.1 (79825abcba525fcdf90b791dcacef51065a7a4e7)
C         0.89382289980234    1.69634897262277   -0.26254977223447
C         2.35536155272632    2.00576679559643   -0.27111723242761
N         3.01811099275889    3.07161341632689   -0.55719409420393
O         3.01720950181852    0.89244362167875    0.09733026884757
C         4.39192413344316    1.23578028641038    0.34355834897566
C         4.71681286220389    2.06423424285590    1.58698277273404
C         5.72694528085854    1.19558594123121    2.36477713521078
C         5.19884939271195    1.06344053420399    3.72942054686397
N         4.74288480397288    1.00266621088705    4.79624894995372
C         5.74143108280669   -0.15825188317386    1.69608353128575
C         5.08593368264818   -0.07627144915308    0.53108210561096
S         4.88422509640512   -1.32453313474596   -0.62525207812288
C         5.87964192714897   -2.57574761277642    0.05565000336357
N         5.83947894832116   -3.73741719220389   -0.49514656936222
C         6.63846222957111   -2.39638321607801    1.30996605253001
C         6.60937352327029   -1.27293903904420    2.05081966869850
C         7.42503433599895   -1.10674417992506    3.30488996977080
H         0.29099146667731    2.56807939384780   -0.52913745978967
H         0.58006853694897    1.35902061080410    0.72912425851884
H         0.73906082422023    0.86814504625568   -0.95987895387920
H         2.41511235466280    3.85977477846373   -0.81726528275805
H         4.81023444759763    1.69195152310285   -0.56169446725283
H         3.84806169341319    2.36481330889011    2.18567543187873
H         5.19387634585855    2.97898684920780    1.21204949996297
H         6.71795263676392    1.64249121424220    2.51650384692440
H         5.25244878724534   -3.86534893310502   -1.32910558860652
H         7.21459427374345   -3.26824468969473    1.60417523872240
H         6.80011460771777   -0.99898588169825    4.19984026172068
H         7.99889195628714   -0.19306249657940    3.12392663712726
H         8.23201364024905   -1.82172734865047    3.49315953352883
