30
 energy: -48.310467447185 gnorm: 0.131926549180 xtb: 6.4.1 (79825abcba525fcdf90b791dcacef51065a7a4e7)
C         0.86171992122975    1.58037012947359   -0.53163799796378
C         2.22525034121289    2.08443573458859   -0.18723898370628
N         2.80756638086685    3.15927832304971   -0.59063363812867
O         2.94966951566209    1.12145517392480    0.41373526937206
C         4.35531263190214    1.35352453754824    0.61035645389880
C         4.71283817837441    1.96905572304376    1.96360801460083
C         5.76399350055840    1.06141212540105    2.63527536339438
C         5.32546455109226    0.76877428650392    4.00664502848681
N         4.95873255018871    0.50382218791119    5.07670487923951
C         5.75053739605722   -0.18872879236486    1.78839612866422
C         4.95020969256537   -0.01408164629818    0.72886798347949
S         4.79112168479874   -1.05339827241897   -0.62407853650765
C         5.92544416137958   -2.32908604670500   -0.29857400963704
N         6.22059705019049   -3.35176871339995   -1.02070354953307
C         6.64678643500886   -2.30017477741281    0.98988167596017
C         6.47549062228215   -1.43334836186512    2.00531594919684
C         7.44657103034225   -1.43119020065614    3.15536542702998
H         0.10876343156503    2.37129988611050   -0.48833322640772
H         0.58950032719220    0.66990525721752    0.00928696481037
H         0.94198998603157    1.40496076724598   -1.60817378625277
H         2.17531007318170    3.78496345812204   -1.10172344050080
H         4.79952617945698    1.89186717513391   -0.23546852927020
H         3.87361251374499    2.11955361136830    2.65394122317036
H         5.03679393620998    3.00668285349294    1.81090091145337
H         6.77888388172344    1.45666846051499    2.77169690575833
H         5.77449565140935   -3.39612180099178   -1.94562783398710
H         7.38766551185009   -3.09362088658419    0.97680209536690
H         8.37239106441992   -0.92820015925969    2.85051984376995
H         7.52850434406411   -2.46013762032520    3.51789632518944
H         7.06187241532131   -0.97895359847978    4.07479513715752
