30
 energy: -48.307695475573 gnorm: 0.125906715964 xtb: 6.4.1 (79825abcba525fcdf90b791dcacef51065a7a4e7)
C         0.85430031829515    1.56778726018808    0.15490257931194
C         2.23785188665225    2.13115094032932    0.13717006567350
N         2.57529265304960    3.31688671229485   -0.23332988673261
O         3.16542322805001    1.23214319460232    0.51753992789815
C         4.59322127848067    1.36043572157372    0.40229058369855
C         5.17473022765573    2.16199264117959    1.56734285691851
C         5.69699045588541    1.08725757328850    2.54308372643317
C         4.61937159291655    0.61942397961404    3.42539243768980
N         3.73549886057056    0.37942268392721    4.14015705091415
C         5.85685252052637   -0.17810076706922    1.73465918405743
C         5.12236961142624   -0.02098416975967    0.62584215673304
S         4.97495612673577   -1.12539399036650   -0.67588767677265
C         6.03752886465926   -2.41281332390752   -0.19265830920060
N         6.28241412536961   -3.36873649711560   -1.01770875509957
C         6.72300272464029   -2.37107543760940    1.11488600391302
C         6.61697078084232   -1.38599345606796    2.02604338899300
C         7.51469054389394   -1.46964462021319    3.23133062806555
H         0.42906926356274    1.62972711886207   -0.84995097354532
H         0.16700938846604    2.20943931101367    0.71308125107597
H         0.80647048509291    0.49142416838555    0.34277442879616
H         1.76803366843231    3.88579042478529   -0.51104234675240
H         4.87489699454280    1.83094823102712   -0.54735942749201
H         4.33131235622021    2.72746840865842    1.98254488619775
H         5.96944279699820    2.82989343100331    1.21058337838234
H         6.52730089581483    1.32886092371645    3.21914089718343
H         5.71825316893436   -3.46358541338626   -1.87163186863281
H         7.45022067530093   -3.16229907065072    1.26899255025017
H         8.33667590677303   -0.77801288629375    3.00983986297387
H         7.73730204617624   -2.49906760682390    3.52731532769838
H         7.03051799827301   -1.00953075194813    4.09835665869866
