30
 energy: -48.307498494603 gnorm: 0.129601385296 xtb: 6.4.1 (79825abcba525fcdf90b791dcacef51065a7a4e7)
C         1.08813601659766    1.96306706650967    0.48240492318648
C         2.44731938807603    1.66886946083472   -0.06346718034333
N         2.81404619690663    1.56076169275589   -1.29266609230577
O         3.31986821257707    1.69343407103164    0.96188148315054
C         4.74227316116523    1.66643866868679    0.75120623476805
C         5.39206031321878    2.22623872441083    2.01706306010376
C         5.90515417187153    0.99568494771815    2.79317745105552
C         4.82126778832212    0.71064298793439    3.74319887503402
N         3.97064554289416    0.48653316261125    4.50210377597531
C         5.92617940017395   -0.09411486088557    1.74812618806640
C         5.30816642702023    0.28745306473300    0.62291872493396
S         4.89832041371898   -0.64252030480635   -0.75662036720349
C         5.78891578679005   -2.11279222510862   -0.50135511517678
N         5.79018348922460   -3.11768841441777   -1.30425497569582
C         6.48366473431939   -2.27055762443703    0.79236919064221
C         6.44943683476901   -1.44903144067663    1.85808971698470
C         7.03048390656298   -2.02705477706385    3.12058285935653
H         0.56368500707405    1.05447258036405    0.78866601636898
H         0.35228500942061    2.30539281071776   -0.25038835366425
H         1.16738414853197    2.68643354259116    1.29886172276090
H         2.09278679964289    1.63480164058565   -2.01843856400251
H         4.77710932139709    2.17816074975794   -0.21806427880164
H         4.60191003393829    2.82196858522247    2.49064277023921
H         6.27991457863293    2.84763133242381    1.84235505097517
H         6.86859962903984    1.07635303102187    3.31289507568852
H         5.24832472894717   -2.95882456652343   -2.16309719044085
H         6.76743659454598   -3.31763471119795    0.75074324237076
H         7.72830610866050   -2.82878902595806    2.84977127526752
H         6.29588307485064   -2.53374920838854    3.75343108717370
H         7.45720678702122   -1.19333948642523    3.68687638965363
