30
 energy: -48.306168568766 gnorm: 0.122907621362 xtb: 6.4.1 (79825abcba525fcdf90b791dcacef51065a7a4e7)
C         0.78404615581595    1.66526092127527    0.28709603328105
C         2.23238747012858    2.01722162367903    0.18541448090325
N         2.70338054030761    2.98541504170173   -0.52018657784324
O         3.09627953152427    1.09996692680491    0.66040827704318
C         4.49900475069389    1.33956434877075    0.45231272370781
C         5.06017576649674    2.16632501773282    1.60970069878799
C         5.79807913120014    1.12772747481836    2.47958305699421
C         4.76409743493232    0.63243296966062    3.39836738344124
N         3.80427963604436    0.22282456008951    3.90894633585029
C         6.02886448176797   -0.05372852782772    1.56791540077685
C         5.30400115961164    0.07850622239545    0.44956241896501
S         5.10479695856947   -1.06403354270206   -0.81173577470385
C         6.00280976177165   -2.37787655126015   -0.11358845695006
N         5.98446804871343   -3.44552199273531   -0.83070981361109
C         6.68692523844124   -2.28763237758246    1.19221811756669
C         6.72033637886676   -1.24467004773535    2.04248312297304
C         7.40389766113107   -1.37519189769560    3.37714557418420
H         0.53305755523650    1.07421513543336   -0.59724454754422
H         0.19328549955493    2.56427151663275    0.48313533053887
H         0.65150159033515    0.87958098376415    1.03628226342373
H         1.99240700096640    3.64363498229713   -0.85738956070510
H         4.43369516458861    1.82030117351508   -0.53114302020793
H         4.34299791082116    2.73236994034745    2.21695548544043
H         5.77041776572360    2.93040966576240    1.26813395098807
H         6.72153424682209    1.54618655956450    2.90025350197527
H         5.46935820727927   -3.41764724670183   -1.71972244454125
H         7.13547240175067   -3.24711280751095    1.43061370664094
H         8.45467757006630   -1.06561861215657    3.43281024750753
H         7.41900421292716   -2.44866046270946    3.58764873748156
H         6.90790251365984   -0.77324132961384    4.14493873413437
