30
 energy: -48.303979385159 gnorm: 0.138076904425 xtb: 6.4.1 (79825abcba525fcdf90b791dcacef51065a7a4e7)
C         0.95363296869106    1.59776642246380    0.41918995614408
C         2.33643698802267    1.51026315799815   -0.13947296707272
N         2.70462140866849    1.46312352595761   -1.37208154685170
O         3.25518216988130    1.59495456462307    0.84135292927795
C         4.65388307738579    1.61094899504459    0.50709452511010
C         5.25240590108640    2.40756259334067    1.66690927517350
C         5.75655159605403    1.26327911529550    2.57042132160010
C         4.77509280332302    0.85111810221566    3.58307200823403
N         4.16876074621625    0.45056759562408    4.48951608914390
C         5.96775404590195    0.10500618026173    1.62488683526044
C         5.23489973140523    0.23229117486459    0.51117710288753
S         5.16862570677085   -0.82940795018699   -0.83208583230696
C         5.85250933388732   -2.29374449416858   -0.19330432972645
N         5.66041038275333   -3.46667324010626   -0.68503841087290
C         6.52058633338195   -2.25020756645946    1.12315549653478
C         6.59915905650700   -1.17263592096061    1.92596494221793
C         7.15237871511091   -1.46072613143683    3.29584372894784
H         0.29482648122300    1.78290590352292   -0.43291687192394
H         0.59620937689652    2.41679418198110    1.04934193458461
H         0.77275645680962    0.68663049940620    0.99647329302968
H         1.92765253295452    1.42490851917118   -2.04088771858456
H         4.77244177547797    2.14480657885110   -0.44343078279857
H         4.45558888678459    3.02255963127585    2.10322407327421
H         6.09673614509892    3.07660222150550    1.45612665407336
H         6.59833233561998    1.52488434698333    3.22449232967011
H         5.29070456079476   -3.48363971495364   -1.64393796416757
H         6.68952662744225   -3.24942972603248    1.51257040314595
H         6.36016570744384   -1.39785238190141    4.05183184635825
H         7.86408104306998   -0.69778225701504    3.62488931439486
H         7.70176412031684   -2.40708723670381    3.31678044931664
