30
 energy: -48.317467487087 gnorm: 0.130677699475 xtb: 6.4.1 (79825abcba525fcdf90b791dcacef51065a7a4e7)
C         1.04790882154293    1.92560836960504    0.45701798286078
C         2.36194221133020    1.51363047613652   -0.12220432684527
N         2.71932101074448    0.96956555523237   -1.23278055614971
O         3.38252637352696    1.78620974091136    0.71289642264196
C         4.76901913543742    1.62205808672318    0.36787367134506
C         5.60443178378617    2.34347010431993    1.42600568207369
C         5.97407255347924    1.26678563694867    2.46715778572322
C         4.95286161145259    1.13768407147783    3.51551855704369
N         4.15431077178837    1.03773563844318    4.35340096507576
C         5.89575768704986    0.00628848461456    1.63935857636295
C         5.18753529217124    0.19358462406645    0.51821312113414
S         4.96016633992457   -0.94885956318744   -0.73840016655672
C         5.63425031271278   -2.41183124755083   -0.08621566942105
N         5.62411812729988   -3.56572531976732   -0.65445148410624
C         6.30101518298513   -2.32561895606025    1.22880548138580
C         6.32092842265526   -1.30594992714260    2.10727891705593
C         6.95265732230673   -1.45901915590651    3.46488858436345
H         1.01470913323279    1.97505581811195    1.54827477578845
H         0.19944583067711    1.41979775806799   -0.01193380996834
H         1.00940547945284    2.95454894878217    0.08831782262940
H         1.99508095266962    0.66522292816289   -1.89254916398973
H         4.88907464444768    1.93735425397478   -0.67555019808860
H         5.02853042715157    3.15419159633374    1.88923085497333
H         6.55604456437640    2.57329264789819    0.92946608278995
H         6.93386708134723    1.44475014783554    2.96911793366756
H         5.19993871197533   -3.58400728993472   -1.59050499698210
H         6.61480061193936   -3.31798848349040    1.53762748924177
H         7.57789966277232   -0.60041184940646    3.73863673660292
H         7.67593735717968   -2.27756000656088    3.40380359013978
H         6.17282729239068   -1.60592506293483    4.21864301310397
