30
 energy: -48.312907111466 gnorm: 0.130410692176 xtb: 6.4.1 (79825abcba525fcdf90b791dcacef51065a7a4e7)
C         0.88893856164269    1.75386860149763   -0.12665144248859
C         2.33645291421864    1.71517136742618   -0.49422829400507
N         2.92436621209650    1.90282841496761   -1.62394002369838
O         3.12450976740819    1.52812540068022    0.58153420408479
C         4.53975405924664    1.39092412445226    0.36564524620679
C         5.28394193264580    2.25559213298952    1.38374474461304
C         6.06165335573370    1.31984770547550    2.33212692369570
C         5.41118441020639    1.31403433540526    3.64949387242371
N         4.84990966769119    1.25416628013574    4.66492803987732
C         5.84098966992781   -0.04338290437033    1.72126877765393
C         5.12707601818934    0.03347443940945    0.59076172505903
S         4.74808383908977   -1.25840180640805   -0.46913120386536
C         5.51204201716476   -2.61224165042058    0.30772500271771
N         5.45303822837038   -3.73793812674178   -0.31178459316341
C         6.29434245661314   -2.40025135702942    1.54237261698255
C         6.47858428997113   -1.25333939308138    2.22243508094015
C         7.33232747579795   -1.24728261775143    3.46207273305301
H         0.58074997815507    1.38796652856678    0.85595943041847
H         0.38951962274738    1.06477507374555   -0.81322295351391
H         0.45529472884941    2.74476668470164   -0.28856205066645
H         2.25171000427392    1.90225608621379   -2.39852120812682
H         4.85126996167974    1.74153487502888   -0.62561068281676
H         4.57829780692939    2.93934338849802    1.87165852729551
H         5.98875813531318    2.89925482685514    0.84164759915109
H         7.08905721735930    1.61732020383663    2.57868789659011
H         4.93333147406750   -3.72726031067704   -1.19849168195764
H         6.91355455319983   -3.26588921561129    1.75656199430222
H         8.01541450691674   -2.10113203196259    3.37601556898185
H         6.69928011641195   -1.15991057804492    4.35004327233822
H         7.98374741843161   -0.37229449506707    3.37313561245862
