30
 energy: -48.304162344125 gnorm: 0.139125889709 xtb: 6.4.1 (79825abcba525fcdf90b791dcacef51065a7a4e7)
C         1.13768882562529    1.39534688755194   -0.84074581318104
C         2.59017710703308    1.74033402028462   -0.78444565113028
N         3.37106974285719    2.27511472074207   -1.65698339615260
O         3.06324902752848    1.49741250132645    0.45267878712678
C         4.45838147753949    1.58344408768949    0.79113519903269
C         4.85354127833284    2.22013035396965    2.12397891814203
C         5.96729616209814    1.25059031930037    2.57054778523205
C         5.76617187519465    1.03553669408134    4.00995753771636
N         5.58846671689815    0.83331204261456    5.14011071802927
C         5.82701788451236   -0.00841133578387    1.74867494973950
C         4.95564525338901    0.17306814891752    0.74797459447703
S         4.34518757061726   -1.04272711515660   -0.29372395529200
C         5.31441610415806   -2.44179210535430    0.05732210743764
N         5.08705763446385   -3.62166514596043   -0.40167025980481
C         6.37690668176651   -2.27264698663283    1.06914843504919
C         6.58166591553212   -1.24350188826996    1.91222099947352
C         7.48863413563573   -1.42440104021006    3.09978151964946
H         0.87758217767840    1.28691768109380   -1.89667019516344
H         0.56186284794205    2.16895946366404   -0.32538415855605
H         1.18452317872671    0.52394506400342   -0.18149894121768
H         2.80866807310167    2.59638388702925   -2.45255438615484
H         4.85410362473981    2.24135148901602    0.00811522970326
H         4.01439184294185    2.34174879111367    2.82007265824593
H         5.17315055817189    3.25567969102739    1.94955307545400
H         6.99527975180141    1.60220173770317    2.41415040627223
H         4.29280209511407   -3.75004230330056   -1.04130769978600
H         6.93011975434113   -3.19946392465361    1.18574763786889
H         8.08338837895067   -0.57691035496633    3.46185820530243
H         8.10972566266119   -2.32317224274860    3.04207365712523
H         6.81893338148291   -1.68325290970390    3.92583152441926
