30
 energy: -48.320455709253 gnorm: 0.122165959870 xtb: 6.4.1 (79825abcba525fcdf90b791dcacef51065a7a4e7)
C         1.12017651644090    1.86295746057002    0.70424509368188
C         2.41982728744910    1.49460020415064    0.06617862010565
N         2.65431585636743    0.79587404891824   -0.98923725874009
O         3.49036568474125    1.85991809763143    0.79677777679655
C         4.80240819084654    1.60615546431880    0.26527271404152
C         5.73150822412204    2.27783589954503    1.27700957434235
C         5.97291391932953    1.24305935626749    2.39542016839528
C         4.80729997095098    1.27020269396159    3.28940377650960
N         3.98644234641251    1.31722827989154    4.11019694588481
C         5.82865403828544   -0.03708785726875    1.60760671279141
C         5.20780073282312    0.17671713782139    0.44036443360927
S         4.97154728806456   -0.95464874376992   -0.82460508139491
C         5.75999528448552   -2.34659840952720   -0.14574879202823
N         5.87204361911565   -3.45139437282592   -0.79485370527423
C         6.28883058654795   -2.30980678312256    1.23275335991938
C         6.25520162390036   -1.32155409818465    2.14602373525483
C         6.70178349829873   -1.49107622022428    3.57341382888010
H         0.94445482209074    1.14898028805455    1.51279140775797
H         0.31088732589231    1.68640894323995   -0.00956947142061
H         1.27494921833662    2.88524627100554    1.06077283355338
H         1.81365107748237    0.49206918540838   -1.49265363425243
H         4.96005717730896    2.00163754005335   -0.74532072159353
H         5.22374254981551    3.17509533967382    1.65198796373668
H         6.71878044832141    2.47275730709835    0.83856224512611
H         6.91508978886524    1.34294484134529    2.94964794021605
H         5.42732003806982   -3.41292237220940   -1.72070435674212
H         6.63424281543129   -3.28724520368665    1.55514153779586
H         7.75748448544646   -1.21428416668508    3.68274875564690
H         6.52321958043600   -2.51415222269956    3.91736866156347
H         6.10662822280506   -0.81338545343018    4.19340365631321
