30
 energy: -48.316574141143 gnorm: 0.124731264362 xtb: 6.4.1 (79825abcba525fcdf90b791dcacef51065a7a4e7)
C         1.12908003006035    1.53275584712236    0.52231111374603
C         2.50970221336462    1.74880906931782   -0.00599884676644
N         2.96816299573507    1.97901577063634   -1.18664459965760
O         3.40009305951271    1.58648121137859    0.99106612733129
C         4.79851125136079    1.73511463332258    0.68992941544756
C         5.31921835689573    2.25058551084273    2.03199753171752
C         5.95392133304223    1.00516408916952    2.68465292155991
C         5.00746993041150    0.55831123590328    3.71574534494158
N         4.19381586308829    0.39712047164572    4.52919765599488
C         5.94143054069220   -0.06272510139760    1.61708818138008
C         5.34141940045386    0.35471617499521    0.49487815501840
S         4.98274484942379   -0.58210031809969   -0.89425097398087
C         5.62913892512904   -2.14137719031472   -0.48091055199647
N         5.79023253444536   -3.09733693428531   -1.32628381122481
C         6.04877177030021   -2.35693347205554    0.91863663843833
C         6.30187452259321   -1.44933761231903    1.87990964500280
C         6.81497303155239   -1.90234925976236    3.22047891303148
H         1.19380872948469    0.89889429742791    1.41024038465050
H         0.47120258348919    1.10208858304330   -0.23753925276233
H         0.71818032052917    2.50989793966086    0.79156153748550
H         2.27431561330610    2.12050279377222   -1.92893830508268
H         4.91734836944262    2.34292270016149   -0.21505978966763
H         4.54187200818671    2.70594530114797    2.65800822183527
H         6.07278887952060    3.00229486439683    1.76366681724375
H         6.93702806068320    1.13487584386759    3.15530875763828
H         5.29351535706154   -2.95841858754674   -2.21534642117299
H         6.25049289170482   -3.39676368041511    1.15673605767796
H         7.61726462151747   -2.63885652604658    3.09025682080111
H         6.03055743887662   -2.38486638888525    3.81102433991746
H         7.32771451323841   -1.06782883975523    3.70887813817543
