30
 energy: -48.310869754548 gnorm: 0.126836538667 xtb: 6.4.1 (79825abcba525fcdf90b791dcacef51065a7a4e7)
C         1.00924732489528    1.49237224151021    0.45083705974833
C         2.37205388707682    2.06593466252764    0.23707914729858
N         2.71093566363459    3.20611751550104   -0.25510781981277
O         3.27904860044192    1.09654143908653    0.46273845304455
C         4.65085259985271    1.20654310051846    0.04512370662144
C         5.35647305225704    2.23297104383115    0.93199370895807
C         5.73264010373486    1.37103689958726    2.15487936625438
C         4.49115277538579    1.22303383834402    2.92650339482005
N         3.51839051042454    0.95956650127964    3.50446413135557
C         5.84319228560540   -0.02775723979235    1.59685518300744
C         5.18642633616595   -0.13500263874996    0.43462334106793
S         5.12113873650858   -1.48669174126351   -0.61638875161344
C         5.95646900432686   -2.73239299948922    0.26137641629005
N         5.82335479366069   -3.93241989595884   -0.18211223500900
C         6.64371163191654   -2.38326267765932    1.52117566980175
C         6.57643079102728   -1.17589951209517    2.11243238580858
C         7.32149532280361   -0.97519171143013    3.40479875145717
H         0.33454796495991    2.26562028266852    0.82667864792909
H         1.14796266489779    0.76813588266542    1.25823371434440
H         0.54070130657757    1.01387499846188   -0.41382822081715
H         1.89090636954475    3.78869507906034   -0.45659740349164
H         4.79058491652617    1.48054506327448   -1.00747126413773
H         4.61600507207479    3.00485087721931    1.17575171614801
H         6.26802900945196    2.71392429099668    0.55425495563372
H         6.59712017608157    1.70560283395957    2.74274051860487
H         5.25708973394193   -4.07786860956190   -1.02748028355456
H         7.02039811499668   -3.24407816079458    2.06498960493415
H         6.70012446413853   -0.55885518345620    4.20706721728377
H         8.19828580449655   -0.36329771823264    3.17306894756841
H         7.77413848444521   -1.92895960294615    3.69342123867061
