30
 energy: -48.307085043817 gnorm: 0.123640826268 xtb: 6.4.1 (79825abcba525fcdf90b791dcacef51065a7a4e7)
C         0.95638140258398    2.11027607337972    0.42765204803484
C         2.38363509323470    2.14455807468885   -0.01243848969667
N         2.87041130327729    2.89852605158722   -0.93530740270271
O         3.13818125911357    1.17923894262829    0.54622404938407
C         4.53449965857074    1.27473310561185    0.21527917179547
C         5.32453246502355    2.15406644652195    1.18513177771970
C         5.80869624184744    1.15770927983846    2.25878880284963
C         4.98730275884268    1.09577503763691    3.47537269561586
N         4.29724138399427    1.18016153421660    4.40618651157348
C         5.86677198014666   -0.18576182607781    1.57180211684934
C         5.05775773685405   -0.09590070133777    0.50829509258406
S         4.96824335607916   -1.35411184452733   -0.65137919381268
C         5.81599737824820   -2.69143337895429    0.06479422107668
N         5.81550399868107   -3.75443839882268   -0.65942006952811
C         6.46639826359541   -2.52751315264984    1.38062006905125
C         6.46710903081479   -1.39778559518291    2.11243456920495
C         7.18545887576875   -1.45587710946783    3.43387874987614
H         0.45418424533628    2.03568954959075   -0.54014107371555
H         0.66637367830851    3.03399686711446    0.93586954498068
H         0.81915701178649    1.27684413236932    1.12241941870762
H         2.18969332298650    3.58867413403250   -1.27110700165068
H         4.64401777394335    1.59743085058964   -0.82704054208117
H         4.75406998804785    3.02871089644014    1.52140393059887
H         6.19358155046493    2.56341244374556    0.65397602435514
H         6.80925138949212    1.47664507807559    2.57817937539317
H         5.16429439099276   -3.82350538318351   -1.45164125630224
H         6.88984799352833   -3.44566457365486    1.77599079647791
H         7.42054922244367   -0.60749350273478    4.08813434717024
H         8.04940781336407   -2.12301373831760    3.36042463992049
H         6.46990851309122   -2.00552946068092    4.05333978482085
