30
 energy: -48.301307861874 gnorm: 0.131587546128 xtb: 6.4.1 (79825abcba525fcdf90b791dcacef51065a7a4e7)
C         1.10971077081898    1.08851799160208    0.82579133094657
C         2.44633970294819    1.37496055319024    0.22306272079080
N         2.86065088817303    1.43423027169953   -0.99428650979743
O         3.32018130417642    1.63877433520981    1.21305660835553
C         4.68967746270906    1.80012660339519    0.80465195339914
C         5.34158446386739    2.17354337711981    2.13640648160055
C         5.75996474983536    0.87076344663945    2.84886970094654
C         4.65364739022348    0.61073977635521    3.78002430170950
N         3.64429088341029    0.60640711222233    4.35526401613008
C         5.79501904489653   -0.08180579527723    1.67770752200832
C         5.32076251397235    0.46737818909816    0.55205054792651
S         5.25827189118165   -0.26147155241625   -0.99740912814749
C         6.02466780053070   -1.80132382319405   -0.74939244390239
N         6.45832154517670   -2.53451859636953   -1.71315382051482
C         6.07825065367163   -2.23478184696674    0.66146956643193
C         6.33188045514193   -1.43536786026677    1.71429731208817
C         6.63622145078726   -2.07674603985405    3.04155998313010
H         1.16057810245496    1.18911496191287    1.91284304210912
H         0.78803158731573    0.07912164754937    0.55506798533599
H         0.41869483632065    1.86097370237138    0.47657766603222
H         2.11236944181368    1.38307170145946   -1.69421535661448
H         4.82049522608255    2.53055106287807   -0.00276688801460
H         4.54958437676374    2.77764291570212    2.59608994084102
H         6.27472033578064    2.73929456304511    2.01757930407746
H         6.74403132654972    0.84643670581213    3.33452603644278
H         6.31424110275753   -2.06864231259407   -2.61795142366174
H         6.34614697579685   -3.28105103410549    0.77184149784000
H         7.35542456606276   -1.59736867527042    3.71685011230046
H         6.90112701712141   -3.09315235866268    2.73558980352420
H         5.75788618581038   -2.01911677062105    3.69199675434137
