30
 energy: -48.305589412631 gnorm: 0.130484089854 xtb: 6.4.1 (79825abcba525fcdf90b791dcacef51065a7a4e7)
C         0.90071097912618    1.99355871576068   -0.73723342292326
C         2.30543640470784    2.19194544401559   -0.26894162627950
N         3.11756443571591    3.18383451412951   -0.38603108597080
O         2.74619508472044    1.03111814138026    0.25211164687545
C         4.12204718645827    1.17513537035003    0.64535287859960
C         4.18365138520372    1.64938807439255    2.09768969621734
C         5.51355320163556    1.07292566147556    2.62583141874135
C         5.40844603338339    0.71576218001274    4.04709353817342
N         5.51582715487448    0.56977804897762    5.19464657797638
C         5.75683162268060   -0.08416872697128    1.68658386111343
C         4.96804776449803   -0.05811781639846    0.60456385007766
S         4.88331238094295   -1.19463667723625   -0.67492710388402
C         5.93990492177922   -2.48149816838262   -0.17731311722807
N         6.00222044603703   -3.61224713410659   -0.78722268896577
C         6.75987179395493   -2.26462322529062    1.03178082883069
C         6.69192091229532   -1.19040167519967    1.84003065438784
C         7.56488324579518   -1.22511067319957    3.06573357913810
H         0.17684630477364    2.80042904106908   -0.59806133609128
H         0.49171216792699    1.08715307564214   -0.28248250793743
H         1.01151145945706    1.97066173639338   -1.82504775133487
H         2.70380145584488    3.93887925247771   -0.94383961288628
H         4.56699984718620    1.97999567553360    0.04804609939880
H         3.39074538463305    1.24196026410165    2.73707371406142
H         4.12629002131723    2.73943458830342    2.21364280415562
H         6.27635378160724    1.86217980691457    2.61847926626317
H         5.55275332735253   -3.74411841118168   -1.70212588551782
H         7.41516615347348   -3.09263135595618    1.28401374303054
H         7.51502114868711   -0.30321394896480    3.65792674282227
H         8.56382820299497   -1.53318301878341    2.74312714094558
H         7.41534491118202   -2.13248333994256    3.65917699808866
