30
 energy: -48.309711684617 gnorm: 0.131619497615 xtb: 6.4.1 (79825abcba525fcdf90b791dcacef51065a7a4e7)
C         1.16437084297102    1.62476205805314    0.73126760332951
C         2.50063644701802    1.46570491207054    0.08242009939129
N         2.72213828169440    1.00621894327598   -1.09949165304886
O         3.47971701973420    1.83989067425313    0.92780226403900
C         4.80079439260701    1.66614548077716    0.38658526774652
C         5.73860987340595    2.32103338739106    1.40128567091894
C         5.88566438758397    1.25291870872457    2.50463849691351
C         4.75698583932750    1.35888180343451    3.43922710356599
N         3.85512695331463    1.15618198772972    4.14299084005068
C         5.84543513370236    0.01853076782346    1.63578531797393
C         5.19453595169775    0.22607776276662    0.48388234748450
S         5.07890213949822   -0.85405009609671   -0.84122329360875
C         5.74189044889930   -2.35253077331022   -0.26241232591619
N         5.65414065270294   -3.49933088815320   -0.83827307709155
C         6.27058946282378   -2.32250848228409    1.11630613624186
C         6.29501679460743   -1.31564943784488    2.00932081790037
C         6.71368402733062   -1.57027578942707    3.43252100677816
H         0.37473618058787    1.35861669204692    0.02413790993714
H         1.12040557987855    2.70341970336820    0.90509034947556
H         1.02751235311651    1.02111414934623    1.63294381292789
H         1.91186441530367    0.94178367369842   -1.72538866572860
H         4.87603393283148    2.12858318693346   -0.60490288119592
H         5.40623471225456    3.28073461595724    1.81602604400121
H         6.71944052472442    2.53493714897960    0.95726621878672
H         6.80405839304376    1.16495954346241    3.09932878574946
H         5.26803815550951   -3.45500972331836   -1.78980819610526
H         6.76780763868825   -3.22307316961989    1.46327434856800
H         7.79168950508745   -1.71465556476433    3.57440550117468
H         6.36039743442900   -2.57646596508832    3.67674309355808
H         6.31418861892692   -0.77579166819830    4.07053382993015
