30
 energy: -48.309057574930 gnorm: 0.142538604152 xtb: 6.4.1 (79825abcba525fcdf90b791dcacef51065a7a4e7)
C         0.76294437009934    1.73283646337446    0.05675998337118
C         2.21937798457176    2.04987957132258   -0.04419957614718
N         2.73509900879686    3.06922559700697   -0.63755556320960
O         3.03967541792863    1.08460917675055    0.41258261104964
C         4.44961457940841    1.36535665312018    0.45259689496261
C         4.85418351196541    2.07943095740929    1.74271894969611
C         5.77542559236039    1.12563526731403    2.53105160565583
C         5.03295691906276    0.73513016623532    3.73722136859804
N         4.51131996007008    0.41094487124651    4.72338510483618
C         5.85390425016767   -0.09824179165299    1.65002710865852
C         5.14049385419500    0.04031918799818    0.52509478036857
S         4.95608012164925   -1.12678191581433   -0.71579972451857
C         6.10007776618507   -2.36355651783262   -0.28956257065589
N         6.41343234924543   -3.40358448501497   -0.97848708752991
C         6.70280113913862   -2.30925805483395    1.05768092159962
C         6.60192530839536   -1.31047685836348    1.95439576752497
C         7.13763970404034   -1.52692529596581    3.34427921865636
H         0.00973088572142    2.50711798926516    0.22273054773186
H         0.64327130563304    0.86835981612842    0.71555288994410
H         0.54994959162978    1.30443219566676   -0.92672567550549
H         2.24044176382604    3.90360174863676   -0.97158155606301
H         4.63675334787659    1.93537129010821   -0.46534691529506
H         4.07038546259631    2.45232097079146    2.41363099141745
H         5.40458108664304    2.97038334271248    1.41377632631344
H         6.69320745636232    1.63308773500888    2.85510320504380
H         5.82199732077174   -3.48080622725954   -1.81556534973787
H         7.24648216318030   -3.22698004090859    1.25973788497958
H         7.49607275031700   -0.57080734797508    3.74482486062839
H         8.10585280559757   -2.03582179824956    3.32277815253200
H         6.39774409614984   -2.05232475923223    3.95613859875555
