30
 energy: -48.310292835201 gnorm: 0.130307851297 xtb: 6.4.1 (79825abcba525fcdf90b791dcacef51065a7a4e7)
C         0.84731274118143    1.58359355441184    0.16716798866656
C         2.25580271485594    2.05526553048710    0.00720061718841
N         2.58510624238521    3.25721403742095   -0.31526608973146
O         3.05923188929591    1.00501747983983    0.26169097345529
C         4.47985722006290    1.16113504452630    0.10106839785773
C         5.21548571941788    2.12288190212805    1.03481709621561
C         5.81915475811776    1.27490060982514    2.17340958904871
C         4.95394937354415    1.17012623948689    3.35622034537335
N         4.09879534325739    1.26393850358765    4.13700899055157
C         5.93395163316915   -0.07373694611112    1.50390510709710
C         5.22289639435873   -0.10933886186849    0.36955115284077
S         5.15736152701702   -1.45287434635561   -0.69184882212909
C         5.92566824855090   -2.71083020719470    0.22862486830113
N         6.05315688171234   -3.93411061693304   -0.14793566221183
C         6.43287648735220   -2.46514624254334    1.59378705267736
C         6.51366071801773   -1.24268025671511    2.15136025823537
C         7.29721077485087   -1.03944524086856    3.42036004093873
H         0.18597632183220    2.43944726901090    0.01052438700840
H         0.59486174447086    1.21226537411378    1.16418026663522
H         0.57921078680594    0.88558417607434   -0.63098317491298
H         1.68808289280182    3.74762523102610   -0.40063988275281
H         4.57609081647069    1.50376626176740   -0.93618822997519
H         4.58491849857293    2.90363138310103    1.47790229916869
H         5.97488139050569    2.60813159847946    0.40808924154410
H         6.76496518174431    1.64340693874900    2.59112555338977
H         5.83395932384378   -3.98411243694145   -1.15088672752449
H         6.84623168774853   -3.34866373869081    2.07040421755976
H         6.62722384414796   -0.88134264238174    4.27428839060218
H         7.88696230446610   -0.12128959381169    3.34252784677559
H         7.91253165271363   -1.87593068910343    3.76609732525320
