30
 energy: -48.309665003233 gnorm: 0.128365278937 xtb: 6.4.1 (79825abcba525fcdf90b791dcacef51065a7a4e7)
C         0.78778281579664    1.71345364785847   -0.05718768383279
C         2.24019609114148    1.86833318514007   -0.37090097237434
N         2.69571033955484    2.83515982878615   -1.08843760423279
O         3.06687203566710    1.09634816608952    0.35980469079552
C         4.49022478677416    1.30085465486278    0.33545936655759
C         4.96782081236422    2.14681378441653    1.51624221455382
C         5.78470636819261    1.18753816457530    2.40639372809508
C         5.16759655024362    1.20840546975529    3.73956262856360
N         4.65789918263041    1.11100577042925    4.77900572236970
C         5.85653481538587   -0.12246999529613    1.65875938158841
C         5.10012374196687   -0.04733981981112    0.55611542215169
S         5.06838515866533   -1.26935037601279   -0.64456571798105
C         5.80533718304885   -2.64149247088035    0.12624410068828
N         5.77148313560021   -3.80940490955253   -0.41162259812099
C         6.62519857879149   -2.40263647915836    1.33126016219038
C         6.64587333653971   -1.27625444199782    2.06792367280262
C         7.39385326915943   -1.20338697098454    3.37208316254737
H         0.38774431981113    0.69797317934939   -0.00099802251266
H         0.23218344087209    2.27660978783467   -0.81204800411033
H         0.49578859297762    2.26889457160999    0.83856104457454
H         2.02492163031502    3.29912694680129   -1.71070742815809
H         4.81939853416264    1.69271295213456   -0.63441180707008
H         4.02257817874354    2.41162735942252    2.00603748552118
H         5.54675370787119    2.96701832232118    1.07235250478408
H         6.79874878604304    1.58647291086256    2.53834046054100
H         5.13029764589429   -3.90276164398382   -1.20950998085189
H         7.12358840883434   -3.24812165214494    1.79536361506370
H         6.79060726948241   -1.47032429611669    4.24838863029822
H         7.87524630259731   -0.24130932733481    3.57093452371500
H         8.22978507033988   -1.88042898750443    3.17035536828016
