30
 energy: -48.304374298908 gnorm: 0.139783901138 xtb: 6.4.1 (79825abcba525fcdf90b791dcacef51065a7a4e7)
C         0.92718866780622    1.92825976194497    0.40693416097130
C         2.35943802576770    2.14551380782913    0.04173490867039
N         2.80951198113286    3.05487024686856   -0.75048357345819
O         3.23688019441467    1.33398367751853    0.66205649356074
C         4.61198907185257    1.31302808969364    0.24136044660524
C         5.48343522840937    2.11243884503369    1.21064733784969
C         5.86382694318210    1.07895261391771    2.29096669780784
C         4.99162590371489    1.25458714480172    3.46016186610991
N         4.24600208218306    1.20878727338345    4.34991893152576
C         5.82804037246850   -0.23734479961300    1.55183304660576
C         5.08708553403315   -0.09080619155654    0.44587706864579
S         5.00212949947646   -1.31315793191187   -0.75186716870954
C         5.73071659168914   -2.69775932890273    0.00447928007387
N         5.87299850581336   -3.87260030762367   -0.49947585537937
C         6.35025720799636   -2.62114515974685    1.34298161179916
C         6.37468494129106   -1.48585682430150    2.06572706922491
C         7.08383815338175   -1.35978396487803    3.38740145773238
H         0.29716280678589    1.81148266529079   -0.47840147371496
H         0.69001643570360    2.87862562071738    0.89294205797492
H         0.85389297364023    1.15849908556140    1.18039215987627
H         2.13288632475827    3.61885157270813   -1.27635951034657
H         4.56876363233848    1.63966950653876   -0.80458189644991
H         4.91282759527234    2.99282194062992    1.53133697492322
H         6.31264571048551    2.46244328915720    0.58228139466294
H         6.85137105617185    1.42121718373348    2.62630619489801
H         5.60097699104444   -4.18519045392869   -1.44008752217082
H         6.72280917084584   -3.60624981043782    1.60642720134443
H         7.20436138816431   -0.35387513107481    3.80775150216227
H         7.99650395061316   -1.95718619645327    3.47122432623591
H         6.39272443336789   -1.73716422227882    4.14753826761112
