30
 energy: -48.312580138290 gnorm: 0.128420617423 xtb: 6.4.1 (79825abcba525fcdf90b791dcacef51065a7a4e7)
C         0.84240675671209    1.58454886967191   -0.05495462154205
C         2.26278704603485    2.00525602608557   -0.24843160530802
N         2.71257319631764    3.06000153426005   -0.83350436879649
O         3.06418414358430    1.14249050216793    0.40477823478644
C         4.48442886143143    1.35520551933424    0.32728043531820
C         4.97953266103867    2.17188379351929    1.52139172102229
C         5.78776770197957    1.19012879610647    2.39477290064744
C         5.05139337337583    1.03187578671356    3.65624351804579
N         4.50969827527966    0.95517751735119    4.68113563308358
C         5.92198776043777   -0.04834390139655    1.54130458740068
C         5.11526499180232    0.00653738627145    0.47368463880596
S         5.12953796962141   -1.22138727360166   -0.72128382518500
C         5.80727578815065   -2.60759734676868    0.07816164239170
N         5.79051498948426   -3.83184670317721   -0.31604480715230
C         6.51589873857773   -2.40789132864840    1.35849738262760
C         6.61679453533980   -1.23746140668213    2.01557491610345
C         7.43510987625453   -1.26227400450166    3.27865050390734
H         0.18898134611172    2.36270002105186    0.34741918075810
H         0.85881552445975    0.68652254421583    0.56868716485383
H         0.43228441065964    1.22720509703755   -1.00376762739341
H         1.98648578905928    3.52872296618710   -1.38626110476869
H         4.73608330337427    1.87719446105177   -0.60371685351402
H         4.20599320884202    2.54082074700173    2.20625047329944
H         5.56326712896250    3.01237826237274    1.12420162516014
H         6.73293394892226    1.71937495497583    2.57197380189124
H         5.14999399265746   -4.13730989045513   -1.05960628879201
H         6.83764007201228   -3.35565473975158    1.77904064724454
H         6.71392427620895   -1.36537007109720    4.09861091675470
H         8.04928584841954   -0.37130931688116    3.43941214001882
H         8.06967160825813   -2.15019062853935    3.36109707369587
