30
 energy: -48.310301704459 gnorm: 0.134988880705 xtb: 6.4.1 (79825abcba525fcdf90b791dcacef51065a7a4e7)
C         1.06807115522265    1.36948218272697    0.36488949855250
C         2.43779868938830    1.58285201393400   -0.19209148808439
N         2.70587599787692    1.62452038607416   -1.45046508590151
O         3.41437969696503    1.55761385633248    0.73469722904738
C         4.76294207485414    1.56316256961027    0.23499994203346
C         5.59250603983507    2.38722048001377    1.22026393214266
C         6.13086558445409    1.32586435397795    2.20188179172563
C         5.26001188186847    1.51150843445770    3.37053461108561
N         4.66261488852866    1.51396009518887    4.36694360552366
C         5.91385304208728    0.00285463810011    1.50705183352312
C         5.20178518851816    0.14036468895725    0.38114051522802
S         4.96207125775591   -1.14761377081203   -0.72321496923634
C         5.59789506458185   -2.51023530943509    0.14799717831750
N         5.58763833922300   -3.72252251957621   -0.28179423874331
C         6.20717531063645   -2.38942443131334    1.48794900811315
C         6.35334153368624   -1.22736263399039    2.15133793709336
C         6.66225477532470   -1.29403935582025    3.62298410147112
H         0.83518173031040    0.35901431651492    0.71000667526728
H         0.28808856806808    1.62681237400516   -0.35695393530836
H         0.95127819786884    1.97224708020024    1.26997232029899
H         1.81266940256959    1.74000591550648   -1.94167561503230
H         4.73714264519791    1.81525155997408   -0.83193206162899
H         4.95906259357765    3.07897521871586    1.78924025428636
H         6.39585130697693    2.92892021466912    0.70438154912608
H         7.14164362094938    1.51679951140169    2.58491236539422
H         4.98292511863346   -3.83005692701064   -1.10594037908693
H         6.41471540732913   -3.35510417754007    1.93852568836292
H         6.83145644143214   -2.33455069178138    3.92593541717378
H         5.78000700591074   -0.96823456593325    4.18187999726803
H         7.43090564896321   -0.58267812559028    3.94079378387185
