30
 energy: -48.308131411266 gnorm: 0.134858855678 xtb: 6.4.1 (79825abcba525fcdf90b791dcacef51065a7a4e7)
C         0.84996564855132    1.88055411385802    0.69166969154035
C         2.23097212478610    2.07880274630022    0.15741634978112
N         2.64364928355398    3.08623085013715   -0.52952760890407
O         3.06448877819273    1.02646411788392    0.26285915603544
C         4.46454962644713    1.03385669709994   -0.06596253695432
C         5.17039240501004    2.02214021711555    0.86305560240331
C         5.63296156059209    1.24231841284441    2.11116990811540
C         4.82294431262348    1.36858323726783    3.33040276833469
N         4.28052879740598    1.34533079557225    4.35751760861820
C         5.80146831442817   -0.13402633451435    1.51324118609353
C         5.17363143741133   -0.22150339923780    0.33349761124816
S         5.23920183943479   -1.51056453665189   -0.79343383558800
C         6.14217184829377   -2.71804321823050    0.07066137642163
N         6.48003232438662   -3.88552217953919   -0.35041988636768
C         6.57803827888738   -2.43140104126436    1.45237970335542
C         6.37618958733123   -1.30510376379090    2.16128652557152
C         6.81112070297534   -1.08918181913600    3.58600702042436
H         0.28624124979314    2.81124552496335    0.58960617208822
H         0.91250504103328    1.67926598657018    1.76461960840696
H         0.39527047955472    1.02954051889051    0.17672387030335
H         1.95398576567898    3.84567554646879   -0.53664808352072
H         4.55413031581271    1.21744617079806   -1.14338012030651
H         4.56255217371600    2.92035209917786    1.02814644247764
H         6.00255216438474    2.52078876624536    0.34944421551595
H         6.54379713029230    1.70842139571411    2.50862124855942
H         6.39467125517254   -4.04349233042831   -1.36245621424765
H         7.11505703994456   -3.27857367678271    1.86775795952962
H         6.03115154899614   -0.72875725005675    4.26778032752875
H         7.68220426771592   -0.42731267696211    3.59015630802495
H         7.14107991697541   -2.00264396305965    4.09056211223927
