30
 energy: -48.309752526198 gnorm: 0.138601827428 xtb: 6.4.1 (79825abcba525fcdf90b791dcacef51065a7a4e7)
C         0.97621892054423    1.74253337119020    0.00424259044129
C         2.42088096940511    1.54347255177299   -0.32015588887446
N         2.99829833004981    1.36875963640049   -1.45733239001409
O         3.24691005117193    1.79638667811006    0.71279868468204
C         4.66338054537764    1.62030884901324    0.53685387022446
C         5.35351015033283    2.34192289417067    1.69486390365084
C         5.98916567145160    1.18904906951577    2.49904388928096
C         5.21289918995955    1.10075343101226    3.74331618371222
N         4.77551300876301    0.91564047556574    4.80357397657821
C         5.80485346195165   -0.06323048776653    1.67559823242526
C         5.14113069582032    0.20256085198494    0.54314381897539
S         4.78181633357299   -0.95377803857453   -0.66917869646977
C         5.52236435645668   -2.37052228610328    0.01232284894020
N         5.60369655095348   -3.43882459886563   -0.69942246980495
C         6.10408704058304   -2.47659887553321    1.36570198627294
C         6.32946070635999   -1.35975138784571    2.08242750568598
C         7.17970360622079   -1.45008835874894    3.32119377259642
H         0.36088436064413    1.41361642611289   -0.83692664389638
H         0.81768889763495    2.79813095483929    0.24137457770703
H         0.66106726827514    1.26076336198104    0.93414480253733
H         2.43117126448338    1.33587721287934   -2.31157377869626
H         4.82593343287142    2.01834712669007   -0.47195753950790
H         4.61657006687946    2.99568582062223    2.17758806595582
H         6.17346733056540    2.88042344746110    1.20229488741913
H         7.04058999389826    1.43539359221868    2.69567086651374
H         5.17413569201730   -3.37012341847589   -1.63066690954481
H         6.54181389308415   -3.46029520800250    1.50486498855127
H         7.73320501494857   -0.51220193179213    3.45187578458966
H         7.82119285411505   -2.33563425297267    3.35546507434715
H         6.47634126482458   -1.67746825374806    4.12831319931227
