30
 energy: -48.307554479226 gnorm: 0.139075298873 xtb: 6.4.1 (79825abcba525fcdf90b791dcacef51065a7a4e7)
C         0.84180064189269    1.46987234312145   -0.02895478459563
C         2.24936029064077    1.95662041001690   -0.14625855053782
N         2.71296942489947    3.01999622792478   -0.70429461237098
O         3.16196370973177    1.15606524180850    0.43645164563785
C         4.57184953149275    1.33588915930008    0.21682930099910
C         5.27951235700331    2.19144617344495    1.26812776781916
C         5.90509863954953    1.30311110550743    2.36329171093623
C         4.90875502439135    0.95554927101226    3.38559279148062
N         4.16980110029567    0.68338197166919    4.23975444513060
C         6.04131383249800    0.02290927348938    1.57413613315282
C         5.21698255851066    0.02020878417730    0.51862838685142
S         4.91687587714724   -1.28973431797216   -0.54435673816979
C         5.75282802660183   -2.59953404307552    0.23386473193078
N         5.58724237423402   -3.76406339447702   -0.28663398229718
C         6.58144090186282   -2.38879385019080    1.43813955414787
C         6.63698544125539   -1.20658050450701    2.07932864681665
C         7.46438325297822   -1.07873211670019    3.33020164526979
H         0.92095730797818    0.44996127811929    0.35562849655668
H         0.41524336311802    1.56109269563777   -1.03163985054618
H         0.27719216593395    2.00688395794125    0.73849347068838
H         2.04476883412811    3.54369173580571   -1.28022316525751
H         4.73591185598847    1.72495972596938   -0.79523098087809
H         4.66849682434546    2.97440425059713    1.73411697409325
H         6.04563894216511    2.82940162497417    0.80878067183354
H         6.73265005936623    1.68202748503451    2.97682404046304
H         4.95825815168745   -3.95101417716114   -1.07776408130252
H         7.04919866773846   -3.29234867813350    1.81684913553040
H         6.99488072863172   -1.54696304326203    4.20392913151448
H         7.61050682507679   -0.01265500130759    3.52769087385323
H         8.39523403649079   -1.64713120252245    3.23909039372759
