30
 energy: -48.309700055952 gnorm: 0.117237934914 xtb: 6.4.1 (79825abcba525fcdf90b791dcacef51065a7a4e7)
C         0.90234751050223    1.42127924107351   -0.60600079480572
C         2.34080327577013    1.82451851154618   -0.61829477971741
N         2.91813055018556    2.67773288919475   -1.39019131993240
O         3.01386770281462    1.17992436349474    0.35369670479579
C         4.42794753842474    1.37060199551810    0.53361055754235
C         4.75507028584776    2.04714654464400    1.86525286472315
C         5.89762192642386    1.21847623444723    2.48795892989890
C         5.65670389971929    1.04503929823401    3.92687436138531
N         5.25251162124196    0.93294980884703    5.01028780797272
C         5.88290048682959   -0.06768736379437    1.69688080384982
C         5.11631367690097    0.04416625209867    0.60442498413663
S         4.63845159832366   -1.22252165837511   -0.44586171804392
C         5.57568157318290   -2.54326098733331    0.18443006682557
N         5.62251844266307   -3.64643435828897   -0.47532827978690
C         6.50042273269123   -2.32693278452206    1.31551128270860
C         6.72642937853832   -1.20790389553498    2.02862605207112
C         7.55145150944799   -1.05974555106608    3.27882741144777
H         0.53661200463672    0.82442014124116   -1.44527751770493
H         0.45764850877163    2.41872755010453   -0.55132650683416
H         0.65537576742149    0.92682255637831    0.33774630017163
H         2.36107049092768    3.09876456238661   -2.14176243230817
H         4.71509810818286    2.06933417749783   -0.26129593739045
H         3.85298628256999    2.10360681540527    2.48699718703546
H         4.90491507267754    3.13276914308967    1.80274674529467
H         6.89324865468962    1.66372057745016    2.36416118163620
H         4.97273649156125   -3.70850977059914   -1.26929847331403
H         6.93392249469447   -3.29201149137234    1.55909035748675
H         6.81653866007944   -1.10803121281658    4.09162762322196
H         7.98070653132158   -0.05346451538417    3.28245467116894
H         8.30927329205590   -1.82598389399666    3.46973828733552
