30
 energy: -48.314840399343 gnorm: 0.121232811570 xtb: 6.4.1 (79825abcba525fcdf90b791dcacef51065a7a4e7)
C         0.90544765141974    1.72730455131528    0.56055338462203
C         2.35683482056834    1.59802199653641    0.23090304414643
N         2.82280682772911    1.52639633522619   -0.96694739598456
O         3.23116060212775    1.79858758517720    1.23520014000419
C         4.63066745033625    1.71823315261620    0.91383977407814
C         5.31900908298216    2.17197421917309    2.20158892745825
C         5.69897502686353    0.84763727393717    2.89559115423022
C         4.58824512865535    0.24346282809364    3.64382358136790
N         3.68535491758410   -0.39085480283350    4.00734872818266
C         5.78296958960963   -0.10859385879334    1.72991322794257
C         5.22802255669969    0.37991860358415    0.61321468669796
S         5.15381318420824   -0.39282252555139   -0.91430509920423
C         5.99581326576306   -1.88890942831636   -0.64452746315054
N         6.15319983611199   -2.68777410933486   -1.64027388775464
C         6.56060468341160   -2.16616948532693    0.69167099842306
C         6.39704761454631   -1.42729890784762    1.80484514005082
C         7.05995792277664   -1.86986851846531    3.08167633315642
H         0.54989057140297    2.74089283280474    0.35904253883360
H         0.57126803107351    1.37318648682016    1.53962130293817
H         0.42697166059859    1.14889843266113   -0.23483841933527
H         2.10950805049373    1.23677525484948   -1.64500875021554
H         4.90685968094666    2.42236160321768    0.11981243405538
H         4.75941695488421    2.90323053530208    2.79793627603145
H         6.26359233224844    2.68612219328327    1.98169978332785
H         6.60266674296816    0.92435942162851    3.51389203540829
H         5.81650682010698   -2.31581762667203   -2.53734957957618
H         7.05960381387462   -3.12231076388470    0.81586213445964
H         7.99334058424568   -1.32689595491925    3.27416059787098
H         7.31741078964342   -2.93295659194400    3.06078801597866
H         6.40838170723702   -1.68164456524500    3.94067702355189
