30
 energy: -48.305903031774 gnorm: 0.142454958589 xtb: 6.4.1 (79825abcba525fcdf90b791dcacef51065a7a4e7)
C         0.93251046194745    2.17802037764449   -0.54412878384731
C         2.41006096116478    2.31582716164170   -0.37161260764803
N         3.11422775797508    3.38659835367048   -0.49287258234467
O         2.98595107913315    1.17606196682078    0.05567022851564
C         4.39031330489554    1.14486704064531    0.36412161287787
C         4.65657394500591    1.85522380063391    1.69171021346251
C         5.86417779480367    1.12360063089565    2.31324213650274
C         5.50556852505817    1.05112915921601    3.73617803869473
N         5.18173799651893    1.01254187452089    4.85124075920695
C         5.85503125259034   -0.20545009162560    1.59645880431373
C         4.94346709826434   -0.22230258691742    0.61544262948618
S         4.53458474863169   -1.54807442509212   -0.39009035660365
C         5.69054832977122   -2.72872945924391    0.14826071749522
N         5.90403330031573   -3.82103999927607   -0.49652451974834
C         6.59242457562527   -2.49883644727040    1.29502008415929
C         6.62238002713440   -1.36748487696192    2.02370613663287
C         7.44171814068461   -1.28847316108923    3.28388779964487
H         0.40419039669457    3.12020405855368   -0.37812734358125
H         0.49397597288358    1.42508397160474    0.11649506987195
H         0.84018146144180    1.97126605520216   -1.61411431474450
H         2.64977815040828    4.26006826852319   -0.76449655426812
H         4.98024991861415    1.55925135304830   -0.46220689869643
H         3.72658799351780    2.06407400655856    2.23486487883376
H         4.97857445117944    2.80288135851116    1.24093566994048
H         6.79514466981487    1.69502898314420    2.20548680235469
H         5.20393798926913   -3.94479310486117   -1.23882520988298
H         7.10921857203545   -3.38903697985154    1.64012382521165
H         8.23941090876656   -0.56052561083163    3.09192123932316
H         7.90788833259312   -2.26319444727249    3.45558019266687
H         6.86856601501536   -0.78849577739362    4.07089556518995
