30
 energy: -48.307866596177 gnorm: 0.124954510002 xtb: 6.4.1 (79825abcba525fcdf90b791dcacef51065a7a4e7)
C         0.91539903829582    1.43960550927555   -0.38528882232697
C         2.23643548022487    2.11416030376769   -0.20711316411236
N         2.54672828222343    3.32665410569761   -0.50824927818553
O         3.05455022134740    1.25186440012229    0.42567336385601
C         4.48327398351685    1.33017473485287    0.28088201584022
C         5.21166129379602    2.20869495943348    1.29854948554449
C         5.88454172036528    1.29096849279841    2.34013074400215
C         4.93489633787000    0.91738514452576    3.39711156542169
N         4.28976142725280    0.56835922816367    4.29805658509880
C         5.95505837255371   -0.00679856449449    1.57132263472714
C         5.12212854591509   -0.00088925709025    0.52260011649888
S         4.91396437726329   -1.36820707148125   -0.48886515270580
C         5.69602428579151   -2.67701431577714    0.34505682586206
N         5.58734296892198   -3.90175427114965   -0.03265542270942
C         6.55115912544406   -2.34259155685576    1.50186035366907
C         6.66872161226423   -1.15228406262519    2.11926150424116
C         7.67138297078619   -1.00555091165176    3.23225529775749
H         0.23831412286314    1.97237168406598   -1.05767626861024
H         0.52456712275243    1.13897662446797    0.59068366340602
H         1.14335810550280    0.47510514499705   -0.84779800184202
H         1.72533084110097    3.84905852335799   -0.83204331822693
H         4.63714525166264    1.63492006960536   -0.76123711450523
H         4.51487388060470    2.93757800987876    1.73066760730146
H         6.02582785855969    2.66596389476034    0.72150981241664
H         6.81517771799614    1.73149909614826    2.72051255887373
H         5.22524473962675   -4.19884164531734   -0.94757757501622
H         7.09630873557707   -3.16982398005311    1.94585137597440
H         7.25533484368734   -1.08771131501976    4.24380171885742
H         8.29162180973290   -0.11070308455681    3.12536444002452
H         8.32972229876195   -1.86114979477391    3.05225016234305
