30
 energy: -48.312650897698 gnorm: 0.123680859241 xtb: 6.4.1 (79825abcba525fcdf90b791dcacef51065a7a4e7)
C         0.73854624659873    1.69796901288201   -0.12477364267639
C         2.18934981435907    2.05174966970414   -0.16854893454497
N         2.76260776899175    3.09361313231019   -0.66150091010055
O         2.93610430936222    1.02628323577946    0.28318225828303
C         4.33198676132268    1.30736043848586    0.48531199895569
C         4.69128814902875    1.96520237160180    1.81803081322522
C         5.62463786520602    1.01080054019052    2.59124286409028
C         5.24159250273611    0.79648151977707    3.99336371373548
N         4.97749864817232    0.69772441762227    5.12040475757514
C         5.72048975392644   -0.20774952935806    1.70457159248480
C         5.06459901742232    0.00485675861156    0.55642881209100
S         5.16123391879975   -1.02139501545028   -0.81230100597907
C         6.03298693308046   -2.41524521035256   -0.24905301322672
N         6.34371944338907   -3.32077335605082   -1.10808166727132
C         6.57752160662120   -2.41002790814600    1.12380654325969
C         6.54780711608613   -1.37392384566500    1.98255125128277
C         7.26740160921246   -1.51614758485707    3.29692250220214
H         0.18535852232320    2.63747890722133   -0.04932061701544
H         0.50909967178296    1.11895294307403    0.77397229843729
H         0.46475113717472    1.28849797054239   -1.10125238507089
H         2.14068229939801    3.80281156434470   -1.06484816383071
H         4.70923825571667    1.86521099543890   -0.38016037848420
H         3.76271461887354    1.94138258405589    2.40172001837553
H         5.06712398457584    2.99625752343878    1.84271979239084
H         6.62915067628543    1.44653647034134    2.66824357164086
H         5.81685356038468   -3.21810347215845   -1.98462591911029
H         7.08966050381982   -3.34389631771059    1.33412333060400
H         8.00717679324932   -0.70965484423401    3.37023473329870
H         7.50161951226885   -2.57594571427907    3.43419744914783
H         6.52916652552641   -1.20464015539483    4.04246529096998
