30
 energy: -48.314975684823 gnorm: 0.128680080670 xtb: 6.4.1 (79825abcba525fcdf90b791dcacef51065a7a4e7)
C         0.89006330917012    1.54243559625894    0.48002583067785
C         2.27589863509750    2.04254099445528    0.23251206940927
N         2.75619893434445    3.00745503454755   -0.47130489950844
O         3.16922933768103    1.21834047392111    0.81211409887273
C         4.55336264943253    1.38574741217804    0.45927058676823
C         5.24891656857397    2.18315725692083    1.56305282957990
C         5.59816421179235    1.06712021197763    2.56921824865108
C         4.44087687056952    0.81300423177767    3.43795894137302
N         3.46013983618603    0.54808321206366    4.00160048279393
C         5.79975569713961   -0.15140251104589    1.70042536467288
C         5.26702278677027    0.07124712583288    0.49201783852194
S         5.11479753204903   -1.04638814388697   -0.79781595420413
C         6.05078233922103   -2.41443074028222   -0.27588504234289
N         6.22738120620591   -3.50967841170402   -0.92681631409223
C         6.77161391122803   -2.34331450616078    1.01121748912117
C         6.56187587280182   -1.37308226795208    1.92033597285216
C         7.34954863253733   -1.43283503702479    3.20159194018165
H         0.11866865844918    2.28247383020506    0.25268827602307
H         0.67028862687405    1.29158908391863    1.52138298490830
H         0.70067656277918    0.66176448248278   -0.14020967328810
H         2.12618536978738    3.68227872713346   -0.91867343337860
H         4.60484600339267    1.78956930708233   -0.55898071742902
H         4.49427491789722    2.85829959552134    1.98519981413768
H         6.16925320754863    2.62040596310181    1.15472587884365
H         6.47927010901413    1.31380074802680    3.17555314659200
H         5.95178400509902   -3.54196013791091   -1.91649437265981
H         7.43835979220608   -3.19478354468892    1.10650660811900
H         7.95883357022476   -0.53142776205691    3.34054996923010
H         7.89959187170531   -2.37394058754390    3.29458273151400
H         6.64234528733210   -1.33172467082629    4.03074939933053
