30
 energy: -48.312709276156 gnorm: 0.128832634709 xtb: 6.4.1 (79825abcba525fcdf90b791dcacef51065a7a4e7)
C         0.98164705000057    1.38159152553990    0.18258442335909
C         2.37005646813984    1.85999243237867   -0.09193311797874
N         2.83973890198266    2.40469225006218   -1.15955024320353
O         3.16171533160756    1.56503976606810    0.95666781670360
C         4.58144861111955    1.66230449009684    0.74871197867195
C         5.26334811736421    2.19227236366086    2.01051230496872
C         5.63778995929869    0.93467988545804    2.82176806382354
C         4.68351319587711    0.46922972369620    3.83730304992484
N         4.09045366992445   -0.07303759118643    4.67631831658212
C         5.79555953735229   -0.11918193371673    1.75185131197128
C         5.27084716617828    0.34186892770839    0.60916369594342
S         4.96921239169531   -0.62659033091673   -0.77179809301126
C         5.81692078799138   -2.11681325019478   -0.48781553163270
N         6.02278033669202   -3.13029011368991   -1.25263748804743
C         6.45791399797327   -2.26335023571189    0.83466063112834
C         6.50193779971220   -1.38870612331681    1.85686248458226
C         7.26675102420939   -1.57507886477834    3.13980501819675
H         1.05657256424237    0.40295382029859    0.66325381884802
H         0.48019250473514    1.27452021784701   -0.78319437151573
H         0.37847494729430    2.10896229349555    0.73327145854550
H         2.13606614038179    2.45020880768102   -1.90467815195314
H         4.71632315452559    2.40861115081828   -0.04336983167396
H         4.66048430753792    2.86864200038418    2.62904978350070
H         6.25871373611876    2.59453593740579    1.78167139792552
H         6.59262494334373    1.07885339170951    3.34363495700026
H         5.68710333244255   -3.07414328688629   -2.22249679094762
H         6.88904551465413   -3.25392407856289    0.94198577316143
H         7.78329266827438   -0.69513547190498    3.54224370324539
H         7.97966126110466   -2.37209342759766    2.90871781652003
H         6.59060510857098   -2.02625807722209    3.87269381183076
