30
 energy: -48.312143097018 gnorm: 0.131333325173 xtb: 6.4.1 (79825abcba525fcdf90b791dcacef51065a7a4e7)
C         1.05216281623887    1.52464742781079   -0.86233566335583
C         2.52435119410757    1.74191864910087   -0.73056839079189
N         3.37726544262642    2.09296344064219   -1.62857208986401
O         2.99555233085280    1.60783824212563    0.52373487458285
C         4.40284560989278    1.58928490010943    0.81958963770024
C         4.68985463533688    2.08232834114256    2.23822522512546
C         5.93115423977932    1.25060964439431    2.62202303063312
C         5.74503901222813    0.72859507010538    3.98270713736921
N         5.67183817367600    0.35590305114044    5.08064264097362
C         5.87586110498063    0.01874215986067    1.75042506462741
C         5.02135810315982    0.22930457211336    0.74091327674095
S         4.46001944492250   -0.90629791192046   -0.41288837115504
C         5.21046388551272   -2.36376269891875    0.16386940016441
N         4.97263678855081   -3.54684026143008   -0.28136301049426
C         6.36431207105511   -2.24124052790190    1.07760420137079
C         6.65283367084973   -1.20566467165748    1.88765049717432
C         7.66450500607433   -1.31390231051627    2.99689408656167
H         0.60448919621967    2.02563822336675   -1.72430156207444
H         0.57174526792244    1.99344273164470    0.00084424152568
H         0.89375613532416    0.44654112596067   -0.95579771673203
H         2.94027075416665    2.42231025542768   -2.49633301912615
H         4.91419237836566    2.23528900159393    0.09587591107081
H         3.90313398852345    1.72205518847179    2.91260134807056
H         4.80132275839416    3.17260842504539    2.29987789233677
H         6.90453314028428    1.75697315875867    2.65317438409460
H         4.37200620661606   -3.57410821306792   -1.11500439089844
H         6.90033277439019   -3.18165621403772    1.16084938267149
H         7.31537191044188   -2.08216291112439    3.69757538054797
H         7.92139447028813   -0.41188805620743    3.56014588974513
H         8.64816840452656   -1.62805198564205    2.63415690371854
