30
 energy: -48.310032153319 gnorm: 0.122746543013 xtb: 6.4.1 (79825abcba525fcdf90b791dcacef51065a7a4e7)
C         1.14090673505277    1.42557628070421    0.68877742050327
C         2.45687010020687    1.29787622515882   -0.00680948307763
N         2.69709594177595    0.92606235500741   -1.21559060444184
O         3.44406304628580    1.70819246339352    0.81195509099245
C         4.76191391747852    1.65024735484764    0.23901521738706
C         5.65460375666946    2.37295753581233    1.24836540501704
C         5.98709643400964    1.32485585532153    2.33040650457979
C         4.98825363330217    1.33594536045897    3.40780587276307
N         4.31638512186539    1.30801327836605    4.35518782748334
C         5.91467146409685    0.02427021721810    1.56655477046962
C         5.30104579685590    0.26405063755060    0.40053811164874
S         5.12690431270155   -0.86838248654030   -0.87351930498649
C         5.68143068302671   -2.30054272531305   -0.06023119468554
N         5.64414666569237   -3.43246979382027   -0.66999932162589
C         6.19230390080579   -2.33880649135120    1.32498830137067
C         6.38783628274899   -1.24952612930488    2.09119483947404
C         6.54404520781701   -1.43276114169277    3.57700752229307
H         0.76605591880274    0.39951371751072    0.72150571503658
H         0.44478352899887    2.11720235638669    0.20637151244407
H         1.27295567429185    1.79372986118052    1.71013291675085
H         1.78886474925133    0.75479784207977   -1.66081782831924
H         4.73303887321320    2.11565667551037   -0.75351627555247
H         5.07956026161247    3.21286539856931    1.65749745604015
H         6.61169607327586    2.77150706681656    0.88771401136770
H         6.98348981933057    1.42592859173390    2.77965635723399
H         5.14838569783718   -3.35042311780685   -1.56663079364570
H         6.35896946177175   -3.39449143956854    1.51572764726783
H         6.78844382481749   -2.43311434013260    3.95467845878737
H         5.53169809373835   -1.23082294150797    3.93929028687775
H         7.19122173081607   -0.63980055000502    3.96461301095380
