30
 energy: -48.308648249622 gnorm: 0.131839854637 xtb: 6.4.1 (79825abcba525fcdf90b791dcacef51065a7a4e7)
C         0.91424127866578    1.90572639964108    0.24524181462778
C         2.36201285159829    1.96002998277736   -0.11933551867337
N         2.87342915295233    2.34175292352410   -1.23730098590364
O         3.18195380577470    1.57724417788951    0.87788895010912
C         4.61564320143717    1.58660183448269    0.76477008298347
C         5.30380912033521    2.12583716565222    2.01922054519395
C         5.78108083663829    0.86448238787116    2.76827154071831
C         4.80989567590686    0.53982180265099    3.82183423505612
N         3.96468221257868    0.28460416496286    4.57694899206600
C         5.93827882517644   -0.20471287778010    1.71359226533321
C         5.13128250748574    0.18297030383279    0.71755765381831
S         4.94652006106010   -0.70801444781377   -0.73432442293096
C         5.78305530676148   -2.19785964398974   -0.41716484868714
N         5.74974140953690   -3.15373785939279   -1.27719581792102
C         6.38876373202818   -2.40753805257286    0.91341437358053
C         6.53397792204850   -1.51876628787217    1.91383173552537
C         7.46281493008837   -1.87909392904266    3.04212320759676
H         0.82747937715146    1.55000805911621    1.27496289167656
H         0.50056788694773    1.07298160008280   -0.33013635081140
H         0.46488219304614    2.88083264079934    0.03695051753330
H         2.18917754010205    2.69063432748595   -1.91739231210331
H         4.89438185722843    2.15529670193542   -0.13046695030105
H         4.55872730751254    2.70325004996848    2.58043063029018
H         6.18942048255423    2.73065397353757    1.78507094490809
H         6.68096225622889    1.09223011072988    3.35409181234091
H         5.25674688028759   -2.82525618076287   -2.11714509373277
H         6.63070591969280   -3.46580295818901    0.92641734165701
H         7.34771100589341   -2.88146214522783    3.47233436355948
H         7.34506126414716   -1.30554386188797    3.96627089738443
H         8.51039056699999   -1.71297873449792    2.77221019189568
