30
 energy: -48.310261854497 gnorm: 0.124495713565 xtb: 6.4.1 (79825abcba525fcdf90b791dcacef51065a7a4e7)
C         0.88465267725454    1.92040941008147    0.35128628883445
C         2.29755309787493    1.65884023184120   -0.05761712987591
N         2.77020176118674    1.37415074779277   -1.22065666598209
O         3.11460025052848    1.79356561488644    1.00425282695180
C         4.51918990159155    1.57223415155343    0.78863966824405
C         5.25681798388838    2.10947261112681    2.01553521954027
C         5.63637504022229    0.86934600185159    2.85094170475644
C         4.65369624390161    0.47888050528952    3.87098020075612
N         4.06207525313782   -0.05574358559620    4.71589547298601
C         5.62158894038987   -0.21614911198857    1.80131328181585
C         5.06375004798190    0.18549199379688    0.65191062932564
S         5.13331072078941   -0.55893092015864   -0.88982489051960
C         6.04284420274746   -1.99417641574955   -0.52535357833446
N         6.20170718130005   -2.86262992831900   -1.46077717211603
C         6.63568114936508   -2.20869526039051    0.81024172872264
C         6.35964683652967   -1.46805350048485    1.89977931650908
C         7.13298567494205   -1.69197432335781    3.17155851753755
H         0.68498545828815    1.50776746790830    1.34337917330200
H         0.17670922852413    1.50821543697228   -0.37298010699458
H         0.72769479853104    3.00277035813409    0.35147702959847
H         2.01385213868022    1.49908764348202   -1.90239615886039
H         4.75904062690996    2.19444737909516   -0.08192380988145
H         4.77473842669131    2.93303969069470    2.55668758133851
H         6.20849523001930    2.54111343087413    1.67947940324447
H         6.64324168320934    0.92889151869228    3.28397158667038
H         5.95441434688694   -2.58988689996823   -2.42042091030165
H         7.34118653394906   -3.03275638073677    0.76763730046350
H         8.03668873402824   -1.07039639184498    3.16570696900380
H         7.56031063333217   -2.66800855357645    3.41980259298785
H         6.48739523194929   -1.34420100874717    3.98404156669028
