30
 energy: -48.307762631841 gnorm: 0.130786103149 xtb: 6.4.1 (79825abcba525fcdf90b791dcacef51065a7a4e7)
C         0.96775623705445    2.12603920472134   -0.44524039717844
C         2.44544577384633    2.24224230887848   -0.25858966629499
N         3.21205226500157    3.25853266518454   -0.44983351238173
O         2.91551974756838    1.04939913658362    0.15304170139721
C         4.34181849452120    1.15677000272616    0.30301512445350
C         4.73377826741679    2.00984159265497    1.50992412438719
C         5.73699697481306    1.14514234297680    2.30095438124497
C         5.46535050063349    1.04852226334692    3.74160425272338
N         5.29213845152139    1.09642280219982    4.88939481813444
C         5.68869270618068   -0.23113604282151    1.68146884999462
C         4.91390486585214   -0.19558018316360    0.58965132053477
S         4.76840373165465   -1.40375276306736   -0.61662425156784
C         5.64334928396682   -2.72559699140664    0.09556819823808
N         5.76709711934093   -3.91837944129044   -0.36964426155805
C         6.37492583328320   -2.49248033228073    1.35721036386121
C         6.57011496275563   -1.33923706803439    2.02336967027168
C         7.39597587192121   -1.21981860566050    3.27609014417080
H         0.46881353682830    3.08392709276506   -0.61226026095276
H         0.57455265978404    1.56778065817160    0.40880172654033
H         0.94663084924780    1.51255203927240   -1.35040792164538
H         2.66829364950759    4.11846911805063   -0.58128151901544
H         4.72561394533539    1.64268773207903   -0.60205027484526
H         3.86029229573886    2.21058433088168    2.14256452566566
H         5.30456106667098    2.91451926812358    1.26354605152928
H         6.79431468205813    1.41822004664454    2.18982951601616
H         5.22209050464107   -4.07694711273808   -1.22654721391882
H         6.72119792092012   -3.39557095266754    1.85031540393257
H         7.80895358941275   -0.23994797630336    3.54511707564412
H         8.30554434758501   -1.79986572263734    3.09414223956616
H         6.83626732366544   -1.66170279337183    4.10634713286907
