30
 energy: -48.312592870307 gnorm: 0.126871216711 xtb: 6.4.1 (79825abcba525fcdf90b791dcacef51065a7a4e7)
C         0.90047490931501    1.55081294856033    0.30103411305278
C         2.30627656787812    2.05036267350089    0.22306109861635
N         2.66091277137025    3.22590440495223   -0.16351439002118
O         3.16791409935122    1.16883438397722    0.76506976381796
C         4.53911328254909    1.32879225139615    0.36186395193022
C         5.29971966125826    2.18811634721618    1.37232571664572
C         5.77840899124579    1.11849193534701    2.37564101633339
C         4.71226406881487    0.94420469116649    3.37141120687970
N         3.67718811580264    0.86350005450295    3.89277921330661
C         5.87285083686191   -0.14683815482182    1.55694795884155
C         5.21498507200713   -0.00541621314762    0.39900218942675
S         4.91551585940168   -1.29372877948732   -0.69027336738573
C         6.08170519711408   -2.48593784724852   -0.20174503446032
N         6.37224411248016   -3.59227435568120   -0.79002455815212
C         6.63600996040763   -2.38988281408751    1.16383478213456
C         6.52862555245072   -1.36052981064217    2.02449616832495
C         7.23256654360425   -1.35995171313567    3.35494058392657
H         0.34465545879334    1.76800394720580   -0.61454300944861
H         0.38905056411435    2.02971062124784    1.14052905935799
H         1.05811511866711    0.48417193483930    0.48424858675060
H         1.90458287087813    3.82177134817708   -0.51756294668604
H         4.56305936659605    1.72539150551204   -0.66023877516591
H         4.66180300324975    2.99489347789733    1.75400918263729
H         6.15449677371818    2.65820531881985    0.86902729284561
H         6.71048775791987    1.49583322985920    2.81573601936707
H         6.06953719542744   -3.67768284235315   -1.76856045248406
H         7.12554546700088   -3.32403820246265    1.42139700979748
H         6.49220880242243   -1.16007964272876    4.13915618828419
H         7.89025256101474   -0.49120721148063    3.25692728244942
H         7.67354095614336   -2.32430481810905    3.62591403962462
