30
 energy: -48.308265884056 gnorm: 0.131679264591 xtb: 6.4.1 (79825abcba525fcdf90b791dcacef51065a7a4e7)
C         1.04372040487720    1.93426952015747   -0.19952160770644
C         2.48437816090358    1.69985941035514   -0.51805755827651
N         3.00947166448922    1.44522097410863   -1.66546414937711
O         3.13384319916506    1.66409738565845    0.66101029131230
C         4.56233249389391    1.55232606803494    0.53742167319196
C         5.26772262548659    2.23912571985823    1.70734643331742
C         6.09781727139920    1.24555786341404    2.54618327459705
C         5.36130321071189    0.93077582019206    3.77787261938642
N         4.76012908710366    0.83985168193980    4.76784360441827
C         5.83613742619721   -0.03445765451928    1.78900313196549
C         5.05965003336476    0.15239253199903    0.71393091384592
S         4.52154856927755   -1.08332024384613   -0.34409227618591
C         5.65992432313477   -2.37037764625541   -0.08408484508775
N         5.48597872598559   -3.43508267921274   -0.78452203144955
C         6.46858631752085   -2.27025133142304    1.14771427377109
C         6.52845025137316   -1.28614019124732    2.06410862687942
C         7.26061468659851   -1.45545714417969    3.36828752758682
H         0.37889689628670    1.64117302659483   -1.01591171449514
H         0.82297687415405    2.97885912353310    0.03660221687369
H         0.71365225767264    1.29810915345064    0.62661157558454
H         2.29043961109551    1.32547179157978   -2.38733377211600
H         4.82180721617473    1.95313716444421   -0.44978737341330
H         4.54668642249392    2.79956761835778    2.31522877772325
H         6.01592195941676    2.96944774942606    1.37303467901712
H         7.16683168173312    1.41813728700860    2.72580908990110
H         4.84665641814189   -3.36603491686423   -1.58636863637485
H         7.01994262856403   -3.19554290205378    1.28362356067677
H         7.79134429263152   -0.55820431106764    3.70936812962893
H         7.91395415903646   -2.33214206973986    3.33026673632025
H         6.50906313439433   -1.54983997426138    4.15830278530145
