30
 energy: -48.304276845984 gnorm: 0.138303893461 xtb: 6.4.1 (79825abcba525fcdf90b791dcacef51065a7a4e7)
C         0.93622097036557    1.58006895375844    0.27983118197241
C         2.32930772285709    2.06700005248939    0.04720395109919
N         2.79575829448180    2.99347489123274   -0.71514376892285
O         3.14650129689581    1.21234194458691    0.69143910816542
C         4.52505704700762    1.41235630950562    0.33377034052427
C         5.19601377389297    2.18921879925533    1.46703760521863
C         5.68893225622170    1.13803619801230    2.48287615286654
C         4.70496489205596    0.88473177225648    3.54412277576607
N         3.87582474470174    0.72361983309375    4.34180041581666
C         5.81347282491449   -0.10404233386040    1.63318892493254
C         5.23862598583033    0.10179546820066    0.44121247461635
S         4.96073941349480   -1.17432491462122   -0.66795304610725
C         6.02179054325472   -2.46120653836639   -0.17997131857239
N         6.03742101728770   -3.65735710618385   -0.65267169875389
C         6.69851908236073   -2.34703439437629    1.12780993275449
C         6.57669940571477   -1.29963645308715    1.96444280872341
C         7.32745119911209   -1.38547886704718    3.26621791835695
H         0.27034162538980    2.44370354466680    0.20821658551901
H         0.70660054675507    1.06541616913409    1.21687791451703
H         0.62655231595538    0.79503984949747   -0.41585241051382
H         1.98188888962426    3.31058527066349   -1.25319610158691
H         4.58636232593035    1.99432662293046   -0.59365112939003
H         4.50720004961567    2.87892986613442    1.97037006992457
H         6.12647658193499    2.65009168152440    1.11098703373654
H         6.61521411044999    1.54876586868792    2.90494718342566
H         5.71222798950026   -3.74756707530370   -1.62353226702605
H         7.27871575115486   -3.23966893871046    1.34042461200115
H         6.70102557809964   -1.44078194140083    4.16488640691314
H         7.99017907879582   -0.51692390526786    3.32347651528310
H         7.80033184811657   -2.37250650911940    3.27093941155215
