30
 energy: -48.307101311674 gnorm: 0.130356220868 xtb: 6.4.1 (79825abcba525fcdf90b791dcacef51065a7a4e7)
C         0.81228971017620    1.61072314070688    0.51679218720840
C         2.25989239339529    1.97168179343356    0.43892470648822
N         2.63879009199088    3.18474166548919    0.23391717172878
O         3.15795787647563    0.96831862559468    0.44397413392098
C         4.52778475493202    1.33675861709524    0.20696158180846
C         5.13357816926052    2.21977948037327    1.29841998044090
C         5.58652097961547    1.13331106738132    2.29557124233609
C         4.70674657560523    0.90839925290728    3.45056517025665
N         4.15579068602231    0.55808959009697    4.41152864863569
C         5.78904685527102   -0.09078421159015    1.43486696777789
C         5.23024561707548    0.01592428721915    0.22243947689361
S         5.49569268370333   -1.09875205075439   -1.05152552915294
C         6.09577467408445   -2.50679777033624   -0.22852562584081
N         6.43709254962868   -3.56049038425018   -0.88251348900469
C         6.47455087185004   -2.37570416179119    1.19296361113905
C         6.34297042761426   -1.31095129872108    2.00587503858996
C         6.83362933217124   -1.42504986163867    3.42427236187190
H         0.62188021686978    0.64725181559750    0.99622507006314
H         0.39542773867760    1.82497971972751   -0.47111966204193
H         0.32549937697538    2.30504475977671    1.20751187828583
H         1.85750528400569    3.84557861824334    0.16090153065553
H         4.44054089983692    1.89776780150462   -0.73123646286289
H         4.29862479044290    2.83487568498677    1.65621710550786
H         6.00897687465929    2.71981211300432    0.86416046171175
H         6.59341927733215    1.37969609530487    2.65652988212451
H         6.27979285938224   -3.61176734574637   -1.89695228236745
H         6.84893275914329   -3.31122082858136    1.59703833441596
H         7.23203073558962   -0.48352174624701    3.82160556144261
H         7.66022619723460   -2.13885135986035    3.48830011028997
H         5.97139464683236   -1.73297137823394    4.02393697839988
