30
 energy: -48.310544494385 gnorm: 0.123298466611 xtb: 6.4.1 (79825abcba525fcdf90b791dcacef51065a7a4e7)
C         0.83742551590987    1.61734430875890   -0.44551588886057
C         2.21260939121574    2.10025830513751   -0.11753506924705
N         2.88757641625559    3.10777646221934   -0.54931336871053
O         2.88645453897094    1.11076689987874    0.49900710718280
C         4.30820964971310    1.29841466602406    0.60740200056874
C         4.61878904809553    1.94194166974149    1.95921799174485
C         5.68475819091960    1.03645133417843    2.61012397997637
C         5.23748492770236    0.76813106532114    3.98364148456026
N         4.89972766590901    0.83618767359977    5.09314969569896
C         5.83780930494478   -0.14228481542954    1.67878378753790
C         5.11659690812169    0.04023354448723    0.56515638820462
S         4.91697475675528   -1.04568683468928   -0.74514147473099
C         6.02059701622434   -2.33072797170951   -0.35693109387083
N         6.22753286879822   -3.42814730980837   -0.99514311791693
C         6.71837079756215   -2.30208073803449    0.94444505087402
C         6.57238419788177   -1.37820635559376    1.91242301191240
C         7.30328511136627   -1.56903521781581    3.21433853316024
H         0.07680467589103    2.39511753042132   -0.54998318216252
H         0.48681499858279    0.91910914791632    0.31946093093730
H         1.03032307948185    0.98754318416024   -1.31860357441752
H         2.35226680041509    3.94703283294689   -0.79737601212737
H         4.63818799577345    2.00240488544839   -0.16594817866253
H         3.70494161947797    1.93601688714090    2.56614227105079
H         4.88453518839805    3.00066429233938    1.84336336956695
H         6.65524925557987    1.53550530149462    2.72816301874602
H         5.81622478496274   -3.51092235550871   -1.93345679600309
H         7.34332335412668   -3.17351062836867    1.11377889582230
H         8.19893832140893   -0.93995861290936    3.14264100268199
H         7.52877453966436   -2.60384685282786    3.48855369016507
H         6.77289016050241   -1.25971587048336    4.12035439601271
