30
 energy: -48.308010026829 gnorm: 0.125798319840 xtb: 6.4.1 (79825abcba525fcdf90b791dcacef51065a7a4e7)
C         0.83292205031076    1.69344152928599    0.06467950016668
C         2.26405768005607    2.04558185035051   -0.17977095569365
N         2.77023716753841    3.19473307415425   -0.46321336380448
O         3.05024260974190    0.98770615017890    0.09608591480092
C         4.40508234051667    1.35300190566703    0.41123184277823
C         4.67493836411446    1.92778110010559    1.80220256232418
C         5.61349939865169    0.96953689790764    2.56427386405484
C         5.05869773294157    0.75186735266975    3.90718650509879
N         4.67833733110198    0.66017985474577    5.00109665530962
C         5.81834462690587   -0.20035461382290    1.63173426997054
C         5.24158005865946    0.11375936827168    0.46455777029325
S         5.25101667437162   -0.97880023791151   -0.85535767819604
C         6.00919490709938   -2.43303461939971   -0.28056370690665
N         6.03370911054565   -3.51063292242629   -0.98245193780747
C         6.61847698441408   -2.43285694280022    1.06482244760148
C         6.52311231816735   -1.43212461825657    1.95996346432805
C         7.25406983393666   -1.37017667881045    3.27429948388377
H         0.30986112764933    1.85505397178596   -0.88119435432037
H         0.31737207125407    2.25765681053576    0.84667626597356
H         0.74053423626796    0.65320626495667    0.38951194523465
H         2.02606594487711    3.89179150450750   -0.57617994817931
H         4.79447691296336    2.06569526036018   -0.32565242174346
H         3.75733252931710    1.88435337724032    2.40188817796752
H         5.04353005010421    2.96172136733123    1.80887665908092
H         6.56635278101463    1.45249319161005    2.81659221465550
H         5.69704769311394   -3.48412104711321   -1.95323244587438
H         7.18202395641946   -3.34657602221655    1.22656872930249
H         7.58505311776392   -0.33060625235157    3.38750699597362
H         7.88722177462997   -2.25609168738877    3.37988228030361
H         6.57780359085206   -1.53011797111198    4.11984351922533
