30
 energy: -48.313273484179 gnorm: 0.122095812628 xtb: 6.4.1 (79825abcba525fcdf90b791dcacef51065a7a4e7)
C         1.09734328667349    1.18437928647624    0.51677707767968
C         2.45226315834702    1.54685445059059    0.00227545659444
N         2.75495892026630    1.76308911145276   -1.23008960860758
O         3.32188299970292    1.66980684095202    1.02302459049117
C         4.72686160992860    1.82575853144510    0.75833075239505
C         5.32804714870681    2.26605511062856    2.09351157052071
C         5.78605734282964    0.97595150810579    2.80466612684412
C         4.80800728662403    0.55724114612320    3.81792770502692
N         3.90060635905574    0.43023981118335    4.53222055747227
C         5.83892759106275   -0.04580675619076    1.69405700813715
C         5.26806576375974    0.44179610360793    0.58500958952507
S         5.13248679526250   -0.44056738432549   -0.87752429025218
C         5.90564932592302   -1.96317381476821   -0.55517457350685
N         6.14605077346096   -2.80455752046197   -1.49790822831745
C         6.30396328719916   -2.28215254541127    0.83078615857766
C         6.32326021970625   -1.40996727773349    1.85585081282259
C         6.74336559893435   -1.93565139933787    3.20224722391829
H         1.09610123072927    1.22907149906117    1.60874306710158
H         0.89604555933217    0.14212819091613    0.25440046774149
H         0.29944992339636    1.73114177229287    0.00632826003546
H         1.96626614609586    1.68058505906439   -1.88093482989450
H         4.88373499925048    2.44479366912835   -0.13315374413085
H         4.59842652033608    2.91918075763857    2.58807187874625
H         6.25570038399665    2.84071764850111    1.97451871064702
H         6.78289571323805    1.04071752324682    3.25959417169285
H         6.00579074782041   -2.56369793425470   -2.48723748039117
H         6.55195064606299   -3.32177133099065    1.02137644688687
H         7.60505453452459   -1.29684248125757    3.43134959640392
H         7.14590145613283   -2.93722924876776    3.02425505799133
H         5.84024789798058   -2.05639155331200    3.80859877257966
