30
 energy: -48.306564268142 gnorm: 0.137079137266 xtb: 6.4.1 (79825abcba525fcdf90b791dcacef51065a7a4e7)
C         0.91872290736309    1.56032099199627   -0.47100025781420
C         2.41045988157517    1.58852925919289   -0.54737506613386
N         3.12418817542906    1.98172136953338   -1.54391793625774
O         3.01582522241978    1.37027153759194    0.63549480015740
C         4.44785584559637    1.48130257501056    0.70835798883383
C         4.88727319372409    2.18383827794381    1.99340620478897
C         5.83941946701281    1.16486201541799    2.65294110987491
C         5.40753723235593    0.95126042168975    4.04090775147041
N         4.87978494459510    0.78493215345192    5.06244213153777
C         5.71078044743987   -0.13477330631215    1.89489239108162
C         5.09218020328466    0.13137470221562    0.73725474234717
S         4.61751487137333   -0.96217666313808   -0.49351354021968
C         5.58025108307946   -2.32807295073021   -0.01655830713687
N         5.57060735379307   -3.42302334117426   -0.69143368816729
C         6.56531536072211   -2.24927774877350    1.08104283550963
C         6.66277458234380   -1.23524793019980    1.96086229067597
C         7.62913780487492   -1.30598877661199    3.11271013593504
H         0.37466195477732    2.39177738572206   -0.92604597266062
H         0.39923250040391    1.38022779904906    0.47416944335677
H         0.66988294979161    0.73330324208646   -1.14201541960282
H         2.59188146329062    2.29964852715967   -2.36123953695417
H         4.75009071594206    2.00264207074121   -0.20783936080910
H         4.03196055836139    2.33605125789145    2.66331722497325
H         5.36259121954466    3.16358448378695    1.85517814050024
H         6.86980002340487    1.54311485631285    2.64390823394718
H         4.99474549984791   -3.18433751366021   -1.50866731013436
H         7.22168199609161   -3.11300988198734    1.12322394240581
H         7.10884522457334   -1.19125653729900    4.07146176587715
H         8.44918788321259   -0.59339127179193    2.98388013543071
H         8.03741609595084   -2.32072728993237    3.07428419150501
