30
 energy: -48.311652778917 gnorm: 0.120393665002 xtb: 6.4.1 (79825abcba525fcdf90b791dcacef51065a7a4e7)
C         0.97647005245610    1.52716278066034    0.49711787977546
C         2.31287097878628    1.45762741523113   -0.16703980917830
N         2.63968767510630    1.52942744102997   -1.41007698772414
O         3.22392088176488    1.53609583058222    0.82145175149072
C         4.62174096438049    1.64210932918313    0.50019034432092
C         5.32694096409174    2.37816100033234    1.63988940381996
C         5.83011208913778    1.23250722334739    2.54220742616224
C         4.94221030829751    0.80274290715361    3.63102904342802
N         4.04754569093625    0.35856306173906    4.22432460162634
C         5.86391984912578    0.01220386263953    1.65341338366338
C         5.28477150876100    0.30109726846679    0.48091430770083
S         5.23639481814407   -0.80555098885272   -0.82635074484587
C         5.83396593086684   -2.29381652485371   -0.15702675771424
N         5.67292180538520   -3.40166009957722   -0.79044104889860
C         6.50709898310237   -2.26231280044305    1.15719857771343
C         6.43208189500522   -1.26612448320837    2.05931753297759
C         7.05110926592433   -1.34538306125629    3.42903978468223
H         0.19441817744657    1.66287869995112   -0.25412423575943
H         0.79160636351351    2.41009369976653    1.11510494979842
H         0.86504457900858    0.72499620414423    1.23213773083051
H         1.82856551714974    1.42070384145998   -2.02870671509759
H         4.64140928849996    2.20376607793880   -0.44146421179893
H         4.66016154004350    3.11313878839842    2.10756681877714
H         6.21386372279119    2.93417941018759    1.30951319015866
H         6.81580922048131    1.45296621811330    2.97190497316452
H         5.23791457034056   -3.25551034835883   -1.71015163642000
H         6.94480076211652   -3.23751564235228    1.34700451422760
H         6.42463005290297   -1.03867912656253    4.27552019692163
H         7.87511734897733   -0.62870856209798    3.49433064328906
H         7.33344315742234   -2.36606727391727    3.70536083902336
