30
 energy: -48.308110236244 gnorm: 0.127896495164 xtb: 6.4.1 (79825abcba525fcdf90b791dcacef51065a7a4e7)
C         0.94764281941526    1.36872335791481   -0.06879662319854
C         2.33459344660589    1.87599900441472   -0.29451195856994
N         2.81868562264774    2.46782168611236   -1.33013085601589
O         3.03316728783575    1.53750390901024    0.80580637660077
C         4.46582889197667    1.48782493522207    0.69021461647271
C         5.09759962062213    2.19866135155878    1.88753261154374
C         5.87963399978333    1.09585423104507    2.63058055917391
C         5.18643473752489    0.89438299528594    3.91022254038198
N         4.64457365525040    0.77779304007633    4.93125804116219
C         5.83811959948256   -0.10662355573756    1.71813229159949
C         4.96024237433122    0.07617693420068    0.72337512486782
S         4.84986863603500   -0.93688834143139   -0.65411133620463
C         5.77003868612586   -2.36208608898751   -0.27712513493552
N         5.93346333092890   -3.33671177985352   -1.10044974308668
C         6.44444759263283   -2.33663041601398    1.03657706048717
C         6.49621864115016   -1.37916493973536    1.98125528496538
C         7.26340052815361   -1.57882999295737    3.26077928462551
H         0.82844669018131    0.42297134171963   -0.60333761146072
H         0.24897641393544    2.12174146678566   -0.44360136009976
H         0.98440066474563    1.23090744729120    1.01554495977781
H         2.17663120608920    2.59704858597334   -2.11975687523322
H         4.56925763375002    2.07798263318154   -0.22824868085781
H         4.36290397042821    2.73206331809989    2.50333611541789
H         5.72170353540426    3.00416294247832    1.47936795675416
H         6.91028361242274    1.42790553279386    2.81042576408865
H         5.63105849534279   -3.12655407519203   -2.06005573779034
H         6.98288587139441   -3.25345100863783    1.25601711084408
H         6.58902179293938   -1.77964510186751    4.10218240221375
H         7.94553686186890   -0.77172196038207    3.54387150418034
H         8.00548871217508   -2.36374741156029    3.08450739635478
