30
 energy: -48.310645953041 gnorm: 0.126358950976 xtb: 6.4.1 (79825abcba525fcdf90b791dcacef51065a7a4e7)
C         1.13589708559786    1.09189663007218    0.51446770470030
C         2.47559501793396    1.51600515417898    0.00727006208941
N         2.87953557082548    1.61911896902587   -1.21064019532720
O         3.30076761866827    1.61089868231263    1.06716165123519
C         4.72148943659695    1.78723488450775    0.93003473665459
C         5.30176461664723    2.19439688058123    2.28483836344282
C         5.80479795805597    0.86192800095400    2.87759945232947
C         4.63307299525545    0.52741569691082    3.69842926674758
N         3.76604924398092    0.29941825759255    4.43735220994655
C         5.87852803270139   -0.11195175878560    1.72592232199359
C         5.38474934969297    0.48001824549889    0.63076004520254
S         5.09586102818537   -0.19697381231811   -0.91655306825826
C         5.79107869963769   -1.76177937161673   -0.61977691292735
N         6.05415546183767   -2.55110323805230   -1.60070744146040
C         6.36904193826650   -2.21230823268768    0.66251441738736
C         6.35201223266036   -1.48763053665136    1.79670556405336
C         6.85304470292521   -2.06996042499607    3.09110667074473
H         0.95436014196087    1.63054470981256    1.44789753401183
H         1.16954147514106    0.03351088622507    0.78711634680703
H         0.29629484838717    1.17779643617578   -0.18111143602415
H         2.18437514901485    1.39931749008445   -1.93236175797179
H         4.92544554550381    2.55447951037512    0.17353223787517
H         4.62225789512117    2.68753490095919    2.99095083289465
H         6.10349096970465    2.92411011830870    2.11252951323945
H         6.65084587545269    1.01813437391668    3.55924707955838
H         5.77077992846615   -2.26177446464997   -2.54540092463017
H         6.60818595953383   -3.27095967929758    0.63611419834047
H         7.79325428170761   -1.54152952324286    3.29070456188611
H         7.15706102764985   -3.12061890719846    3.06732875111816
H         6.06836491210256   -1.98150949618129    3.84894311086563
