38
 energy: -53.134277682256 gnorm: 0.137867027442 xtb: 6.4.1 (79825abcba525fcdf90b791dcacef51065a7a4e7)
C         1.12815517677742    1.17366751432634   -0.15684991464226
C         2.52053100016435    0.41988513914997    0.29705602700311
C         3.28208626750121   -0.32731483611011    1.64263815098681
C         2.41733113824208   -1.30623723463504    2.50977814974323
C         1.00505165485902   -1.16881650660814    1.99751015128699
C        -0.03851355617617   -2.07362374617501    2.63874696790305
C         1.12744200954654   -1.52976117224482    0.34111976807439
C         2.35037810848263   -0.90017304439070   -0.45251108061731
C         3.54521290748756   -1.82727316421690   -0.60640850980103
N         4.72594980474272   -1.35462956962759   -1.11853576672964
N         3.55514005337080   -3.11684762896031   -0.43958427165930
C         0.68441450289114    0.38433804450396    2.42181143885472
N        -0.49141283473632    0.93936969234380    2.41910881241759
O         1.73940071396632    1.06147150458650    2.84914321448581
C         2.04619399856713    2.38476385863940    2.31187167578631
O         3.05071552515315    2.56224552555552    1.28285168779075
C         3.40439542517762    1.64221245503941    0.20751693306490
H         1.18952478874598    1.01707373353759   -1.23847402780182
H         1.13114281184023    2.26076218596107    0.01910601022329
H         0.22187112906064    0.79963862551518    0.30713141702323
H         3.87354962497758    0.44036560171253    2.14819039955472
H         4.05079985777556   -0.93099608952970    1.13378886051027
H         2.52407898131135   -1.07732764254051    3.57426509416649
H         2.71013384201030   -2.34844963112176    2.32945724098040
H         0.01709820873900   -3.10032120369804    2.28057910219750
H        -1.08013058014404   -1.74393913189165    2.48105233814183
H         0.14024947533625   -1.94931943158506    3.71243589589064
H         0.21409943547476   -1.33092608024754   -0.23009769112572
H         1.17979792422656   -2.63116540790109    0.38879342539785
H         1.91692908103745   -0.89739188767933   -1.46746529333550
H         4.69864500158570   -0.57821175761910   -1.75111417922680
H         5.26315853401364   -2.16756862278908   -1.39875241543427
H         2.68432213688531   -3.48032623770290   -0.05788591409205
H        -1.21826571314308    0.31271853847662    2.07447576007541
H         2.51752091839765    2.89746817706278    3.15686981141777
H         1.10333802919043    2.80169582905787    1.94497235990121
H         4.46239303409100    1.40106132831998    0.33072646550513
H         3.23093157368033    2.25117723607599   -0.68648923914545
