38
 energy: -53.139478546547 gnorm: 0.146396460445 xtb: 6.4.1 (79825abcba525fcdf90b791dcacef51065a7a4e7)
C         1.10185619541614    1.09579855180293    0.04311261843254
C         2.53796728955777    0.35637788259938    0.36524753822276
C         3.34208782395284   -0.38915932341261    1.68677313584049
C         2.40181781613648   -1.37706995572615    2.46004357199745
C         1.00846802088972   -1.08623284972665    1.96021718792090
C        -0.03934721811248   -1.98414910355033    2.60420381589107
C         1.05009389363004   -1.58095196878548    0.33466810225387
C         2.22824101847627   -0.88417553627986   -0.47048765210741
C         3.36875102324167   -1.82134642291499   -0.83349851594752
N         4.36067056067749   -1.19564091210360   -1.54370563801275
N         3.53301070355367   -3.09069464272997   -0.60392280721353
C         0.70270268827973    0.48188149194216    2.33791253719154
N        -0.44587346177909    1.05300307600844    2.55058674286366
O         1.75348553748167    1.09194315619238    2.86497822912338
C         2.28668480761360    2.37983975672416    2.42804990157636
O         3.40433727727042    2.24638143886313    1.51564252797545
C         3.44342565198880    1.55851597450299    0.22987102207717
H         1.19618189362159    1.19327888823786   -1.04307282169669
H         1.05476406719520    2.14089299714518    0.38706635173465
H         0.27403667576052    0.42167370747224    0.23493962540270
H         3.72020227248042    0.31843630475760    2.42912286753262
H         4.18082943852317   -0.93117943093066    1.22093417608855
H         2.42809069424322   -1.16801586847443    3.53360460048825
H         2.76311501581090   -2.40310529114199    2.31453910599715
H         0.14681106125914   -3.03650430016654    2.39592948560293
H        -1.06220215599731   -1.82486524148245    2.22089976838973
H        -0.02428809123718   -1.91240921952346    3.69729224024299
H         0.06802396887553   -1.47448735048681   -0.13885420703840
H         1.28539138492346   -2.65850275571520    0.37497447599426
H         1.84247416278689   -0.57316780855868   -1.45662961468935
H         4.51927061315885   -0.21315651280449   -1.65901409869212
H         5.11739660213791   -1.85533740112529   -1.68565890797442
H         2.71110210604693   -3.59250840436378   -0.27409955494491
H        -1.27708914560236    0.53530168393590    2.26625512656745
H         2.76193733027994    2.84678261973222    3.29703553558824
H         1.43766561935000    2.91001493265759    1.98588991282880
H         4.51040001584268    1.40365297146911    0.05586944662834
H         3.02331418279845    2.28188239400516   -0.47753425486373
