38
 energy: -53.117806522590 gnorm: 0.162320700096 xtb: 6.4.1 (79825abcba525fcdf90b791dcacef51065a7a4e7)
C         1.27433414751423    1.04750522959707   -0.22093151364157
C         2.63237152447427    0.31936485778104    0.36085452350457
C         3.32473815159059   -0.22786579967803    1.83395755138284
C         2.44741865346868   -1.30339909785601    2.56303978254175
C         1.03249404406040   -1.10897239997606    2.07721790051075
C         0.06601011187881   -1.93907292888701    2.91132284999133
C         1.19401004634559   -1.67628838010080    0.48318066697284
C         2.36832519797664   -1.00661073180821   -0.35007775182815
C         3.49084470272770   -1.94902523116049   -0.75335694108783
N         4.34565350065598   -1.38833086827143   -1.66699235200026
N         3.51335493025826   -3.24555250699896   -0.65618969171481
C         0.59367019935223    0.45690935789135    2.30211067057572
N        -0.57158225612244    1.00760173617433    2.13017471630614
O         1.50148304106213    1.18232077144527    2.93754138914853
C         2.05364258299615    2.38999523547285    2.32883152610987
O         3.14623537557983    2.48743346566744    1.38215727481163
C         3.51600623348441    1.54479583091742    0.33211016108231
H         1.52189882245465    1.33645881055874   -1.24729213225299
H         0.80990174690468    1.92307073902377    0.25910163067315
H         0.41903217752734    0.38653924623108   -0.31098467996712
H         3.53943326495885    0.63042353063548    2.47582254552617
H         4.26090421481676   -0.57603192148239    1.36849789536877
H         2.58938498569454   -1.05458189584654    3.61891038011048
H         2.90031141418346   -2.27112681962902    2.31234687479902
H         0.37578953575385   -2.96524222568542    3.10236692760552
H        -0.88180462201452   -1.90812703757366    2.34633156181749
H        -0.04319099489489   -1.47267486969444    3.89659624484924
H         0.26474141753178   -1.60955214160029   -0.09303589550156
H         1.41258348157271   -2.74859418518201    0.62632785354286
H         1.87755860597659   -0.73972765204943   -1.30188625092007
H         4.39124875405819   -0.39485979563852   -1.78807875587399
H         5.00781537333164   -1.86751091073789   -2.26691953340018
H         2.80790524035228   -3.56944416519588    0.00226995552168
H        -1.30416556982349    0.57167378509690    1.57065061662997
H         2.40052069764116    2.88639166216401    3.24113782943412
H         1.18963707301378    3.01044478055149    2.07200164325169
H         4.57040179455633    1.34966346792714    0.53915302746729
H         3.48461069033536    2.14831562537407   -0.58164747251518
