38
 energy: -53.126747697887 gnorm: 0.151083021263 xtb: 6.4.1 (79825abcba525fcdf90b791dcacef51065a7a4e7)
C         1.08117983793375    1.08353636967624   -0.05295087993821
C         2.47965845734010    0.33049138896105    0.38306486661748
C         3.30579063252866   -0.26548639342705    1.76551978478259
C         2.42020793845431   -1.26204740116184    2.59052386291682
C         1.03275759380116   -1.12689119707443    2.01385183483177
C        -0.01856799664832   -2.06178102536374    2.59659076217702
C         1.12203426199300   -1.69452728453827    0.41425547880366
C         2.24189907911167   -0.94386646153660   -0.42491970187307
C         3.48189323682108   -1.80188193413162   -0.61741186164324
N         4.21211523671325   -1.21143605057900   -1.61638905377020
N         3.78803462479606   -2.98217140921704   -0.16560948659263
C         0.63903364453875    0.43576676543000    2.32723711190543
N        -0.53162175402165    0.98915515901447    2.20906536990499
O         1.67219624506183    1.14648762934343    2.75334618714284
C         2.22763633491771    2.38967920815708    2.22434102076222
O         3.42355026122762    2.29160509091896    1.41217310333026
C         3.40352575666545    1.50907629381927    0.18126170434785
H         1.30127735936412    1.24314577336440   -1.11327181399012
H         0.88626614880597    2.08154917273456    0.36980595337723
H         0.18372582570028    0.50099219914708    0.12522221223252
H         3.80570111935406    0.51275453819442    2.34790779237116
H         4.00376355976814   -0.98487257710819    1.30770262423968
H         2.35610038709148   -1.14790753281867    3.67670500287307
H         2.68009907783635   -2.31912934758737    2.45091696176841
H         0.32062813716782   -3.09583168778788    2.56238885416749
H        -0.94600392957725   -2.07273238757012    1.99803564725480
H        -0.22113639910933   -1.80349139412146    3.64180279794388
H         0.16459081927669   -1.69461204761249   -0.11802403697077
H         1.34943127522692   -2.77133593156338    0.49719491713449
H         1.88188994041578   -0.56780261954164   -1.39805240999459
H         4.00375626408914   -0.24287678469141   -1.76540285392909
H         5.12396019140943   -1.62163539680584   -1.78449547786456
H         3.29492247663817   -3.33737516657002    0.65097172491684
H        -1.19549217716929    0.25878834135073    1.95290313732562
H         2.74470727134658    2.87457276625691    3.05893823651025
H         1.54406220195903    3.08734505475610    1.73097146764997
H         4.46823474256016    1.27369684345182    0.12055999636870
H         3.14982646797439    2.20745100766719   -0.62377511871969
