38
 energy: -53.124680083699 gnorm: 0.148558083142 xtb: 6.4.1 (79825abcba525fcdf90b791dcacef51065a7a4e7)
C         1.19723979002795    1.16175849141076    0.05054764279952
C         2.53328898631260    0.27040330218295    0.41577001246196
C         3.26525914048179   -0.51073622706146    1.75849344479772
C         2.27986564404053   -1.44259466228076    2.54504401684243
C         0.91982596305762   -1.09293540376887    1.99380290070962
C        -0.18018727289455   -1.99520047642173    2.53673730578952
C         1.04172664757317   -1.53555809126317    0.35730819542122
C         2.30349937605850   -0.98010607231785   -0.43085830894694
C         3.52214316464054   -1.77589585443845   -0.86955541074088
N         4.25019798863344   -1.08973520244747   -1.80706575167556
N         3.93498400539110   -2.97588829975860   -0.58580954468579
C         0.69464957807374    0.47426685737576    2.42774007572880
N        -0.42872717460939    1.12738532770052    2.47354720038653
O         1.76322467034468    1.05042158081408    2.95718420117211
C         2.25289058515386    2.32939760423550    2.44891940058566
O         3.28238563792289    2.30724128678959    1.42955959384452
C         3.48923587060822    1.43280186445291    0.28044522015859
H         1.19572787374896    1.23250184901086   -1.04178547945133
H         1.21636443521488    2.15838481826519    0.51864427002991
H         0.19092288030290    0.85520174284541    0.31488889170566
H         3.72640871289993    0.28004037376506    2.35578623807016
H         4.02109027939189   -1.15158175271242    1.27650222042651
H         2.34295930916807   -1.08681107939416    3.57769322990256
H         2.61950221015697   -2.47996661641620    2.43119252596349
H         0.07772701188023   -3.02591262194050    2.29883552610935
H        -1.16176551849443   -1.84641412845479    2.05414810368549
H        -0.40978887134655   -1.79339238098942    3.58876976239533
H         0.11765088220750   -1.35994678872442   -0.20417562307981
H         1.01667118582590   -2.63258163825683    0.47570060677306
H         1.96749700523966   -0.69523442827177   -1.44277155171069
H         4.61663254702212   -0.16994580137267   -1.65396843915789
H         4.93773255705907   -1.65514300175705   -2.29244676205317
H         3.25504000003987   -3.59231342358890   -0.14554781861143
H        -1.28923364054913    0.58373094616049    2.41233242274877
H         2.79628768673847    2.78980401350168    3.28065382972336
H         1.37020602201548    2.92464487347487    2.19598975386866
H         4.55395436012612    1.18982421361259    0.28590409330561
H         3.22413106402247    2.01540487633092   -0.60863747061163
