38
 energy: -53.130064744273 gnorm: 0.148064645028 xtb: 6.4.1 (79825abcba525fcdf90b791dcacef51065a7a4e7)
C         1.23520483653134    1.16592726400488   -0.00241278038029
C         2.62704356120660    0.35651655957281    0.34481650829894
C         3.37884699465488   -0.41709373154163    1.68092435113209
C         2.43518392438687   -1.31772222829277    2.55063153312177
C         1.03277331734323   -1.13302906451556    2.02625646098379
C        -0.00414235111096   -2.02236389560381    2.69914471478698
C         1.12800893270952   -1.53577091418906    0.37773629125339
C         2.25273590799727   -0.85223984282506   -0.51084592543527
C         3.34537560233401   -1.83969074472042   -0.88755332603639
N         4.52007840157792   -1.21987797116289   -1.22771707869018
N         3.19599407780061   -3.10330237452327   -1.15569876210156
C         0.62153162158258    0.42770208594816    2.32646870673284
N        -0.57008212147950    0.90357438590821    2.53680087307382
O         1.65713066421326    1.08678030480558    2.82372982268264
C         2.21151038755527    2.36264761821162    2.37795947278413
O         3.34211116565825    2.31005330289586    1.47329318158135
C         3.53905732165684    1.55672950481138    0.23975735855571
H         1.16131509503044    1.20961516672609   -1.09366446083500
H         1.29489334495278    2.22174420336402    0.30488530155526
H         0.29227705658178    0.72690057169228    0.30527183679618
H         3.86297271972520    0.30963257024349    2.33837122640912
H         4.20607956381699   -0.97171374948874    1.20937144836072
H         2.50053885760201   -1.13727659157245    3.62770871646743
H         2.70791360057507   -2.36936372354243    2.39531115128837
H         0.24312616716389   -3.07077488282404    2.85781807587356
H        -1.01418121998676   -1.95024879233245    2.25966040231042
H        -0.14698017569321   -1.68876021339377    3.73283791556060
H         0.18109262969155   -1.26863609036636   -0.10393574613485
H         1.17322106917731   -2.63762219250897    0.33318478105994
H         1.70847866989937   -0.67105212217822   -1.45369952668366
H         4.52094110576888   -0.23556145734350   -1.04104657312957
H         5.43143436531985   -1.66126572394951   -1.17680888857912
H         2.26718516160736   -3.43279987410801   -0.90098407310637
H        -1.24043707664783    0.19912895025947    2.22994653329265
H         2.78899233397082    2.69358044895231    3.24746203051665
H         1.38777090718714    2.94118947752241    1.94881224725354
H         4.62439050344957    1.43953482482857    0.27154861959650
H         3.30543299205844    2.17380963780221   -0.63477487631957
