38
 energy: -53.126897751940 gnorm: 0.145145065761 xtb: 6.4.1 (79825abcba525fcdf90b791dcacef51065a7a4e7)
C         1.13042320436320    1.08403528818628   -0.17598001143221
C         2.50757275910848    0.36628883598384    0.37286243343001
C         3.30355735937063   -0.31959480347576    1.73111043195835
C         2.44334494446073   -1.39598964968491    2.47906164100694
C         1.00339616784289   -1.14226343375799    2.10756893791813
C        -0.06616299624338   -1.99710027624891    2.77404198355383
C         1.11263553149058   -1.62699424614837    0.48214826475461
C         2.28834486524278   -0.96048467194506   -0.35168407409615
C         3.50713105075383   -1.81876472903250   -0.64958471718637
N         4.41919359805599   -1.18031757435790   -1.44979284127697
N         3.75454540009913   -3.07375205364352   -0.41565290000909
C         0.59212078581014    0.41958427972833    2.40186998465595
N        -0.56828256176509    0.96237901238881    2.17943952812844
O         1.67967667668178    1.09314799787514    2.74487460866862
C         2.14053741770881    2.39219964964704    2.26118291923224
O         3.29147714546958    2.42969944769804    1.38176442916572
C         3.43887592887291    1.54756083735680    0.22937550887778
H         1.15946674605409    1.01123942613960   -1.26779308645312
H         1.00957312102479    2.14667613603235    0.08657269324238
H         0.13130242334006    0.80182509152917    0.13809342469766
H         3.67741092108392    0.45011015100621    2.41120824225281
H         4.16631003779975   -0.76691702911658    1.21164928877221
H         2.49826742992076   -1.17619616131203    3.54938939874926
H         2.68472086415416   -2.45371755282308    2.31351684774715
H        -0.09770000977555   -2.99904309632346    2.34907073357073
H        -1.05569541375330   -1.50863937464302    2.80155762750410
H         0.30148220753151   -2.17224455258941    3.79108533715528
H         0.15802381762561   -1.44183186859552   -0.02228290715465
H         1.37351503114238   -2.69924004595297    0.50047980258158
H         1.90931086852717   -0.72062277545291   -1.36005768962801
H         4.31737089870108   -0.31989747416059   -1.95281868320656
H         5.26552153781507   -1.66663373713639   -1.72403742398712
H         3.13418270994832   -3.68543095836695    0.11078153280009
H        -1.24954605648378    0.24177156021997    1.94198706964015
H         2.50338126149917    2.91895070146306    3.14995415118093
H         1.35370756788174    3.01165704303884    1.82005246855097
H         4.49691018289020    1.27747847679586    0.21169987891959
H         3.22752446315017    2.22876360962931   -0.60217015423926
