38
 energy: -53.121331469206 gnorm: 0.140910790520 xtb: 6.4.1 (79825abcba525fcdf90b791dcacef51065a7a4e7)
C         1.09941587667998    1.09176414862815   -0.05718980815161
C         2.50465825158462    0.32806969103597    0.33650239067217
C         3.20700361168856   -0.35760482958483    1.74555417357046
C         2.35866045649383   -1.36249928751776    2.59908993661884
C         0.96825345625486   -1.16340618788517    2.04866591223225
C         0.06192517558251   -1.97518181349944    2.96435063436210
C         1.17266542906814   -1.68356721966668    0.44350618185190
C         2.30884271043430   -0.98524931678160   -0.41861741724228
C         3.53210159549445   -1.80580884707065   -0.79431541882580
N         4.68619182430426   -1.13409013515773   -1.10524246122380
N         3.54192271582884   -3.08741597832110   -1.01412868864522
C         0.58211032301827    0.41550074038113    2.27904641619109
N        -0.63127966504349    0.88009920500610    2.22934387204584
O         1.59246880275186    1.18673108158416    2.65119899750285
C         2.13708755143145    2.47676459126567    2.23515884664793
O         3.23247909583282    2.44924260674016    1.28710543872821
C         3.45968648905291    1.49220576223873    0.20990887878110
H         1.15160795144165    1.37472923020858   -1.11331731312412
H         0.88620170655370    2.02972343918090    0.47901567889255
H         0.23871567112740    0.43468848342673    0.00584818599436
H         3.68594653333869    0.40936948705342    2.35964644016599
H         4.12334958479334   -0.82579596025983    1.35136340878516
H         2.42119010252220   -1.15811939782464    3.67205128894025
H         2.84617316297183   -2.31603845728616    2.35919382498958
H         0.57625021443381   -2.92558882292099    3.09731992358232
H        -1.01389925313405   -2.03230847847027    2.72380146700414
H         0.05994302902938   -1.36980224802832    3.87743735072462
H         0.26981059723525   -1.69225534078834   -0.17681397491493
H         1.21003051823003   -2.78427658612297    0.51525531436411
H         1.87588242514267   -0.78506514417829   -1.41385082581445
H         4.68880825054370   -0.14187614942313   -1.24391537370837
H         5.38303231772679   -1.78211792979734   -1.45518216150500
H         2.68625383411615   -3.51667265288232   -0.66814653266094
H        -1.39958418231737    0.23260315552180    2.05545959273172
H         2.57561900635501    2.89578525695315    3.14683229103016
H         1.41007704707925    3.22883488950205    1.91380120731132
H         4.47267104125324    1.12964598971513    0.39727512418952
H         3.46007632178321    2.02687393176373   -0.74628390597606
