38
 energy: -53.131603046675 gnorm: 0.153343812048 xtb: 6.4.1 (79825abcba525fcdf90b791dcacef51065a7a4e7)
C         1.14778300216383    1.14103784013466   -0.08461558476827
C         2.55103968876827    0.37624474359576    0.31399587731310
C         3.30041937791527   -0.42056633680165    1.63777367681110
C         2.36501441081739   -1.37783105668634    2.45428091953624
C         0.94785956716221   -1.13787965737718    1.99609780987967
C        -0.16299283959876   -1.91690796077666    2.68748118937650
C         1.07203758664766   -1.53756466532690    0.34876018588937
C         2.26968055446969   -0.90015722390570   -0.47656816080145
C         3.46152295381391   -1.79105174339660   -0.78745055068028
N         4.49948090956060   -1.15300460492032   -1.41621522886939
N         3.50623351827029   -3.08730109740561   -0.69433921408050
C         0.71130707017560    0.43693885551227    2.39499428321388
N        -0.45308569346598    0.99589720433807    2.54463525894374
O         1.83129268241231    0.97794207166104    2.85003915566116
C         2.19061640327099    2.33575469843023    2.44864555114990
O         3.28568993710702    2.27847549879364    1.50155609857956
C         3.51216534911480    1.54114747644329    0.26343194112231
H         1.29860727694446    1.24527131585729   -1.16377543504379
H         1.06559732950607    2.16766407333775    0.30529252273640
H         0.25451028361734    0.62514734411308    0.25071694939038
H         3.74443632357528    0.31729156647407    2.31094520241279
H         3.97543089481397   -1.01847652034805    1.00441587473836
H         2.48664061497166   -1.25165350961156    3.53419454909594
H         2.77649542946115   -2.38420625718577    2.30478826627451
H         0.01690578284813   -2.98938202187823    2.63344014432357
H        -1.13973334609325   -1.67090733022096    2.23583172249976
H        -0.16219908183338   -1.78562233515691    3.77512963584957
H         0.17239158187266   -1.27196299435660   -0.21702444331703
H         1.16291183197212   -2.63713641686069    0.32067045788250
H         1.84885997387434   -0.71169989373481   -1.47927036732415
H         4.53562614251442   -0.15367053029820   -1.47745687042072
H         5.27861390747259   -1.66584492235002   -1.81362063627483
H         2.72800998452325   -3.58714652422334   -0.26930174855855
H        -1.24051567667857    0.43853897063267    2.21435577365617
H         2.72922345651540    2.81276643266207    3.27411443666580
H         1.23384928639274    2.77282277614948    2.14699519758686
H         4.59468572197457    1.39846778979924    0.28546682885979
H         3.31245137382277    2.12530746411846   -0.64157981683012
