38
 energy: -53.130107461629 gnorm: 0.149120217814 xtb: 6.4.1 (79825abcba525fcdf90b791dcacef51065a7a4e7)
C         1.09809334919460    1.09915901690200   -0.02422636737296
C         2.51524704308336    0.32233035284193    0.29380120774485
C         3.30860088161664   -0.36064446232011    1.65505084250162
C         2.42114367503366   -1.28845474598783    2.55483417935670
C         1.00045267662408   -1.12140167004196    2.07570305529811
C        -0.05269363093435   -2.03352067804181    2.69036629267522
C         1.16314829579182   -1.59832837342651    0.45244688565340
C         2.31174998410020   -0.99044209236201   -0.46023720699122
C         3.55273786023043   -1.83696432953136   -0.69299984073643
N         4.49658140489927   -1.12769953181119   -1.39007137686658
N         3.74476511094769   -3.05364675799445   -0.27617785664306
C         0.63836960414089    0.45495956364821    2.35696787911233
N        -0.56637806052537    0.94291400080150    2.32348836649017
O         1.66882548004922    1.15663139255781    2.80410923610434
C         2.11022855906420    2.42951519679697    2.23947163581282
O         3.26833971918028    2.26406644251121    1.38457361146471
C         3.41969103759166    1.52268449670966    0.13744059747539
H         1.24353169544990    1.24456336597226   -1.09935604682301
H         0.93577441728585    2.13722148939279    0.30565709951005
H         0.28125184751471    0.39650357778734    0.10056288797261
H         3.63728540478777    0.47911517577309    2.27272023134420
H         4.23848818281095   -0.75447517473871    1.21404493902974
H         2.63466443889425   -1.08161331474674    3.60771245125772
H         2.69577285072351   -2.34507573716610    2.44264404858005
H        -0.41945020159927   -2.74994576190914    1.95707966875505
H        -0.95134340625930   -1.44549065774040    2.94565993424009
H         0.24280171358682   -2.48752580401127    3.64261496246226
H         0.20388037774852   -1.49746124359663   -0.06683176623862
H         1.26320205134486   -2.69529798783221    0.52138248036009
H         1.97162023617550   -0.81706526905773   -1.49574195246821
H         4.28203015074757   -0.42107598460542   -2.06710648614766
H         5.24642652879920   -1.75187837404916   -1.66596548046707
H         2.96680214197384   -3.50426226863250    0.20116212089908
H        -1.31113209388262    0.30708515796463    2.03916140018812
H         2.63100715946060    2.99648769830766    3.01816827915782
H         1.19002282170432    2.87871318610685    1.85363835491295
H         4.50944364153595    1.46202130173998    0.09932719201049
H         3.11029646427853    2.19822314921829   -0.66760435804997
