38
 energy: -53.131442560297 gnorm: 0.156313391973 xtb: 6.4.1 (79825abcba525fcdf90b791dcacef51065a7a4e7)
C         1.03403847763735    1.04630889290241   -0.10062411347199
C         2.44140074571540    0.32672823647967    0.36247849351198
C         3.27594434333862   -0.38345239292439    1.68461537670085
C         2.38245274924448   -1.30445369353630    2.58542149286466
C         0.99877309386084   -1.10025731662768    2.02011559748274
C        -0.09271710045287   -1.96862672673427    2.63123987414218
C         1.12069811913366   -1.64578907274471    0.41499287672741
C         2.28681954240906   -0.97210561614953   -0.42650296826985
C         3.52730365929170   -1.79559514936936   -0.73292320876312
N         4.29511133816134   -1.26064288799301   -1.73497278737937
N         4.00673923724541   -2.91460146383913   -0.27587010330971
C         0.69697004867331    0.47602801058226    2.36561279487977
N        -0.50306680272512    0.97473103239282    2.40855712076157
O         1.76423989456131    1.11361661663082    2.82226793992632
C         2.12674267467393    2.41320397520266    2.26231265865901
O         3.32613698657322    2.29618102081292    1.45782257302893
C         3.41236925021734    1.47929503771651    0.25235318309246
H         1.25499812371701    1.29071374793601   -1.14448313779523
H         0.72640093670062    1.98396992251312    0.38814492302313
H         0.15430688462987    0.43002420779311   -0.25159618987642
H         3.63159511431225    0.44801496576923    2.29855332269168
H         4.06324716108971   -0.94941034938803    1.16104580144121
H         2.47283310853452   -1.00672626467736    3.63428608323177
H         2.60629034900770   -2.37493858212921    2.49369054304134
H         0.13556389878474   -3.02694560824939    2.51576913063895
H        -1.12540644614440   -1.74826574986118    2.30949568734820
H        -0.01295624745150   -1.69011593436759    3.68778407389460
H         0.17689458223866   -1.52252137996582   -0.12727955906413
H         1.36518441987420   -2.70956311312209    0.57844455982733
H         1.78715436667414   -0.77656817627049   -1.39092905064643
H         4.53656891035355   -0.28910571991759   -1.69573771922167
H         5.17622959099742   -1.76065204475677   -1.69489831458026
H         3.39486386476764   -3.42913361356725    0.35420875276963
H        -1.25387962404549    0.31644010921898    2.20188858512903
H         2.37744349589875    3.10855430023010    3.07019486162810
H         1.34214601571908    2.93920032570805    1.70989915688632
H         4.45648080523267    1.20802176287693    0.08224948249541
H         3.11869397907548    2.10149131969620   -0.60017334186602
