38
 energy: -53.119095064538 gnorm: 0.152426612801 xtb: 6.4.1 (79825abcba525fcdf90b791dcacef51065a7a4e7)
C         1.18677225168372    1.17947855034613   -0.10880857021540
C         2.53807719293579    0.33560462432849    0.30925919934949
C         3.31314561757357   -0.38319412361988    1.66257468244102
C         2.36160603503636   -1.24822387911572    2.55941258459543
C         0.94852201492597   -1.08460890524559    2.05715769251545
C         0.10926885431246   -2.05760543139819    2.87436085724688
C         1.18949381984005   -1.63840290243700    0.46840525169200
C         2.34481113141019   -0.99686996667691   -0.41220885680359
C         3.57130776009751   -1.82276656877306   -0.76495529654922
N         4.33420090732489   -1.24881475332107   -1.74901793136206
N         3.77351970965526   -3.07310066227135   -0.47049622303439
C         0.45735168870734    0.47412327004470    2.21283196357739
N        -0.68251509222218    1.09110521863608    2.10951532499788
O         1.38491655444706    1.19319899842551    2.82656771747134
C         2.10002374017716    2.37610062600336    2.35407336777738
O         3.29846914128522    2.26463731121799    1.54738265224480
C         3.53453796290913    1.47094591309019    0.34645774847789
H         1.40929540568609    1.35631616103827   -1.16588494819652
H         1.19640620086894    2.16561787125421    0.38127373794346
H         0.24883156137772    0.64053110389285   -0.02924744583973
H         3.83106519138101    0.33548341828138    2.30289268650049
H         4.02232812318824   -1.04377887605593    1.13820153438379
H         2.37880780052539   -0.97645521850595    3.61902244256311
H         2.64625453021281   -2.30731152605494    2.51740874588738
H         0.75340720288516   -2.80364252184270    3.33696112105017
H        -0.57444375496584   -2.65993915561329    2.25125836649707
H        -0.46192297540898   -1.56574472251822    3.66936313397937
H         0.21613733128257   -1.45644223881468   -0.00008903859719
H         1.33137581613831   -2.72741282293401    0.57809614370362
H         1.80843027671246   -0.86004997332492   -1.36698302774681
H         4.50720544300261   -0.26918996237142   -1.86788892953359
H         5.03535855867631   -1.82212808523450   -2.20473084075065
H         3.12595620512338   -3.35901707916668    0.26097318153170
H        -1.41263654613225    0.56911350213314    1.62554629803099
H         2.53079477897240    2.67655027123635    3.31490787766011
H         1.39017851293504    3.14438358796330    2.03269230477268
H         4.58735802767069    1.18339137419982    0.38615272441926
H         3.41696029326576    2.13617088509247   -0.51599577310330
