38
 energy: -53.127156536098 gnorm: 0.154393325894 xtb: 6.4.1 (79825abcba525fcdf90b791dcacef51065a7a4e7)
C         1.21489963431129    1.06382413647885    0.02252722261125
C         2.63377340650436    0.30437857190664    0.37319594408858
C         3.31957122949828   -0.56517271959041    1.68560873808056
C         2.36568888939434   -1.45015455841843    2.56021600862482
C         0.98808644577784   -1.14840592574440    2.02449636155529
C        -0.19110074341589   -1.85731397137195    2.67707285920868
C         1.09639710582132   -1.61748212217417    0.39442708714324
C         2.22855012215719   -0.90763625237730   -0.46356602572231
C         3.44050838255684   -1.73249541833846   -0.86555328640275
N         4.22077781189379   -1.14071089336476   -1.82512433461656
N         3.72174009364863   -2.92689373550824   -0.43514355057554
C         0.74227347301978    0.43035812944387    2.40160223154797
N        -0.45983189563820    0.90463669219586    2.54526810086119
O         1.77709660991303    1.11318856785710    2.86743666987427
C         2.16868031375837    2.39382910802309    2.28390648184654
O         3.33722324222687    2.39069894209925    1.42720175193118
C         3.55117345008755    1.50221437801230    0.29022522299951
H         1.32958037228734    1.27454142661790   -1.04548266173613
H         0.99163503102278    2.06487031953374    0.42353057513841
H         0.37216954518030    0.38122779232592    0.04240910271253
H         3.91271169373149    0.06541981163034    2.35290378177842
H         4.13059306275525   -1.06707962069207    1.13369182586663
H         2.50001895143293   -1.29082961930285    3.63422631732312
H         2.59484013085813   -2.51852412260737    2.45759094713485
H         0.00151475813924   -2.91937650876393    2.53421980224111
H        -1.14010557116461   -1.78685000907150    2.11765331293868
H        -0.40983263544138   -1.55202119252518    3.70623191484886
H         0.09753437684445   -1.46832849509953   -0.02989103924885
H         1.29342828191879   -2.69714560150541    0.51109194690637
H         1.77246482431014   -0.66289646341710   -1.43830007632297
H         4.03752300037543   -0.20048342718183   -2.11857893108700
H         5.15586303510481   -1.53191394544272   -1.84879465635928
H         3.01197478517303   -3.17538620718425    0.25087312412285
H        -1.15050076830217    0.21926422984805    2.24027660559339
H         2.58585152560304    2.89178081259889    3.16541026058257
H         1.28679298908377    2.92118071847053    1.90760903064243
H         4.63866788587891    1.40197267322808    0.29113648561247
H         3.33898002860752    2.15168372113961   -0.56612655367032
