38
 energy: -53.125979897560 gnorm: 0.147911707432 xtb: 6.4.1 (79825abcba525fcdf90b791dcacef51065a7a4e7)
C         1.02871358495606    1.07206927504472    0.14473879007906
C         2.49363193777788    0.35277049403820    0.36734247073837
C         3.30645046260866   -0.38937364574056    1.68545233553031
C         2.35548434660752   -1.23096008001821    2.60491849131638
C         0.97176083127007   -1.06841103941153    2.02636566890374
C        -0.01697209994763   -1.99600184393780    2.71981476718727
C         1.24273053427135   -1.68579370516101    0.46614016534814
C         2.31199045537913   -0.93393029507220   -0.43562946969123
C         3.42438384328699   -1.82155907633986   -0.96997518862391
N         4.57670274803303   -1.20373623537012   -1.38260333991564
N         3.28524471930169   -3.09735006348124   -1.17956725693369
C         0.68835790161324    0.49894480605739    2.42411843427492
N        -0.49863902841415    1.01851531513366    2.53238727164563
O         1.77566219359448    1.16057003601861    2.79036904620526
C         2.24809302781074    2.42792436058504    2.23854696830948
O         3.44788452607826    2.28602494074979    1.43866553765948
C         3.41103952102296    1.53967732958307    0.18586752530090
H         1.11913099611295    1.37370800962317   -0.90361102240309
H         0.82167475330563    1.99408947399320    0.71021019849941
H         0.17655990622064    0.40607769733454    0.22730022628142
H         3.99344150347258    0.14273814092549    2.34851009497164
H         3.88534583646380   -1.13576119760072    1.11794461449373
H         2.33958881614803   -0.91163702845426    3.65120109656419
H         2.48452103996377   -2.32080128590205    2.61208933923518
H         0.27337808579469   -3.02084920039862    2.49427268272316
H        -1.04243245598760   -1.82535130141891    2.34855337508940
H        -0.00305136349337   -1.82006275153830    3.80104894410436
H         0.31885808528625   -1.84141802691942   -0.10153950341475
H         1.59550008893423   -2.69918134851326    0.72441200996844
H         1.89065696284063   -0.60785189064866   -1.40215356211070
H         4.70375988804506   -0.23370137679000   -1.16669948510421
H         5.41305215150590   -1.73252514399141   -1.60370614260661
H         2.39369361128767   -3.49527822128579   -0.89160201570913
H        -1.26970966826894    0.37453118608317    2.35770691424573
H         2.60312205121521    2.82529918998652    3.19514734177596
H         1.49007727316197    3.12954491505359    1.87720853150956
H         4.45625446046766    1.27348105312531    0.01452378377447
H         2.96817487375094    2.22485061731444   -0.54528453135977
