38
 energy: -53.130739697845 gnorm: 0.142106020467 xtb: 6.4.1 (79825abcba525fcdf90b791dcacef51065a7a4e7)
C         1.23575366928146    1.17257992977267   -0.15884622076978
C         2.57434613350956    0.35936169773342    0.35083526912837
C         3.28769140482078   -0.36401423120882    1.73529590219437
C         2.41277877469117   -1.24060402841590    2.69661816008255
C         1.01850545485591   -1.19814362786391    2.12213116750941
C        -0.06263603492687   -2.13138599329098    2.65041225673915
C         1.17122998958822   -1.58139969644045    0.47328928491538
C         2.31939469407644   -0.93753391247540   -0.41494406069514
C         3.54018186998912   -1.78854910791357   -0.72523590255658
N         4.21767742293202   -1.39457985856016   -1.85022208395677
N         3.88662116968378   -2.93405041862772   -0.21657323440046
C         0.63063212196181    0.38213910761301    2.33982263791604
N        -0.51259396343215    0.99725890400609    2.26702763578926
O         1.64512158482144    1.08990239843667    2.81310937840760
C         1.98193689743243    2.39900640034099    2.25931550933628
O         3.22428627136026    2.32128030787930    1.51771448906535
C         3.47307375279864    1.57261884853361    0.29072387610010
H         1.41316935111291    1.21048995670930   -1.23832992381218
H         1.18777545535303    2.22816836512047    0.15127534065119
H         0.30464236659706    0.65576043293796    0.04720331337201
H         3.80757784873099    0.38498424048647    2.33817616029260
H         4.02206079100414   -1.05508214498619    1.29099197894725
H         2.45927829499895   -0.81159105982119    3.70196030115324
H         2.92897988866684   -2.20691849907369    2.76164489185312
H         0.01089115254726   -3.16265494861099    2.30899952831756
H        -1.01082568542848   -1.73201492488201    2.25045636992783
H         0.03568779344022   -2.10127388067820    3.74111908232905
H         0.19071819046896   -1.32191399404346    0.05942551240503
H         1.38480592463688   -2.66264248366772    0.53163792333352
H         1.86830946878459   -0.81675640286019   -1.41492043600671
H         4.06303232790068   -0.51134982849361   -2.29711717237942
H         4.88891921163904   -2.00108050804945   -2.30801669258481
H         3.32564401968805   -3.15466739604733    0.60365049245853
H        -1.36625377827266    0.49891249828083    2.01663895851082
H         2.30287997629409    2.99272052533888    3.12160067876495
H         1.07462241988639    2.77422371204369    1.77618285306364
H         4.52490158528704    1.28010766530749    0.26263800760956
H         3.45952587721804    2.28917623685029   -0.53785128678657
