38
 energy: -53.124011848470 gnorm: 0.153145033033 xtb: 6.4.1 (79825abcba525fcdf90b791dcacef51065a7a4e7)
C         1.15472677802197    1.05082967580069    0.09717779605972
C         2.59424636980326    0.35759019627633    0.49734186210180
C         3.30918241921893   -0.40940369185904    1.85728755788507
C         2.35847183656932   -1.38400920923047    2.63466504062742
C         1.01305926450960   -1.12733571672703    2.00235181169775
C        -0.12130883113337   -1.95086672183350    2.59724244176788
C         1.21958717294685   -1.64824105263880    0.39770436947633
C         2.34155621848358   -0.85424068317306   -0.39762746371389
C         3.49192525856018   -1.74475982676935   -0.83859909696484
N         4.01842428250589   -1.50412106945606   -2.08145777217507
N         4.03615569049963   -2.72231354809770   -0.17592788720112
C         0.62414035294192    0.44252345627527    2.28415505412313
N        -0.60403070101778    0.86930737714540    2.27473686683859
O         1.60242756537781    1.16978190878364    2.80200381350399
C         2.08505717291591    2.43374354808208    2.25122699162497
O         3.29039947942736    2.36353311982736    1.45018654652005
C         3.58653263852655    1.48403822079676    0.32471374020491
H         1.45999999894009    1.54365136967095   -0.83133370234951
H         0.81010108290314    1.98801822962547    0.56156446712961
H         0.30139462019828    0.40303508084230   -0.07227264256563
H         3.58314620961464    0.31167382563322    2.63171398548788
H         4.18639063199808   -0.93096329037771    1.44164279443269
H         2.40564559051337   -1.16689053203546    3.70590790523726
H         2.63185069682407   -2.43265420643341    2.46127704098784
H         0.26465479969474   -2.95561365654155    2.76155992719385
H        -0.97625939432974   -2.09088298118270    1.91315140254887
H        -0.57211083881417   -1.54657905931648    3.51022914779207
H         0.27087164324113   -1.53518979676081   -0.13818526403532
H         1.61571623215106   -2.67096490962781    0.52108547564582
H         1.92265734326446   -0.46971778850887   -1.34350469249088
H         4.25919630941276   -0.60833861805159   -2.46004494584771
H         4.81966092489959   -2.11512749098850   -2.19404325197587
H         3.60307529538417   -2.79293289475188    0.74254283162306
H        -1.38447721150852    0.31353140004607    1.92574544017977
H         2.44608424210546    2.90523060783165    3.17122483980415
H         1.28305005332809    3.02786746736898    1.80264467198626
H         4.61356797775135    1.11319466746173    0.34386765170730
H         3.50967014446053    2.07053374184373   -0.59739797328414
