38
 energy: -53.130111101376 gnorm: 0.149462923105 xtb: 6.4.1 (79825abcba525fcdf90b791dcacef51065a7a4e7)
C         1.09641529545088    1.10399639244227    0.00491913861643
C         2.53819785828452    0.37804123376932    0.33230431211109
C         3.33943426024320   -0.27227202698594    1.70488522671027
C         2.40975775152606   -1.27136613929186    2.47659425592483
C         1.00452552132508   -1.09226390772598    1.95786400017709
C         0.06865426246461   -2.06060820445445    2.66873914235552
C         1.16328051531004   -1.64172231025212    0.35730725982825
C         2.33816191297101   -0.92666592000057   -0.43651381722260
C         3.49088034715540   -1.86906344564525   -0.74303681662588
N         4.71569205796786   -1.37793527255292   -1.11510576191272
N         3.48997745555813   -3.16880527363563   -0.70301765176373
C         0.62419614968396    0.45913933718027    2.33684468417256
N        -0.56803306659529    0.95938678162427    2.47461024756043
O         1.67826683175971    1.13027688656542    2.77573813936139
C         2.09005267209511    2.45107949795237    2.30691156398267
O         3.05314869156213    2.53805249610483    1.22787165455776
C         3.38815639466138    1.61402218732460    0.14998809057159
H         1.08990620964917    1.26433965218650   -1.07787642388646
H         0.93861162209526    2.09956542256574    0.44841045050064
H         0.22023793894542    0.51490429647941    0.25353692284515
H         3.79914501981766    0.45133477348010    2.38297404756259
H         4.01321346702672   -0.93913259112211    1.14310430052632
H         2.43562443469403   -1.18777990827410    3.56713147110014
H         2.68846691432829   -2.32652810382634    2.36079197329573
H         0.44342602818147   -3.07873389621557    2.76066715146705
H        -0.90516991796878   -2.18300935425195    2.16355601396693
H        -0.08873187166642   -1.71757900092103    3.69722164912130
H         0.20563738896122   -1.47515483056772   -0.14786039387021
H         1.37085099550830   -2.72569656962352    0.35289023014104
H         2.00151754220322   -0.79768557422021   -1.47961136298976
H         4.93059126373909   -0.39986889268352   -1.14560334708324
H         5.42179917954875   -2.07312657478400   -1.32982947124017
H         2.65514408726655   -3.57915669972657   -0.28973913602330
H        -1.42150909659137    0.44358357742267    2.26176187205851
H         2.63631220776996    2.97225851189833    3.10001280825229
H         1.23954451242677    3.09728847529070    2.06926775907387
H         4.47179395102415    1.48552725519200    0.10626064166191
H         3.21465210690049    2.11372997187826   -0.80936754770118
