38
 energy: -53.125521879835 gnorm: 0.138714620879 xtb: 6.4.1 (79825abcba525fcdf90b791dcacef51065a7a4e7)
C         1.22649897258592    1.11045346786403   -0.05104471907806
C         2.64942468127682    0.37897038124225    0.34029123168491
C         3.34126173836310   -0.34697085730297    1.73429133340710
C         2.39774550440941   -1.28174079716082    2.56736069255269
C         1.02494758104044   -1.13306972347285    1.95977606782355
C        -0.07188856813553   -1.99259809487563    2.57382054182658
C         1.16506442174457   -1.52415869150039    0.31165402995020
C         2.41171657268942   -0.90483545042046   -0.45261096241045
C         3.52003461939883   -1.90129816834605   -0.75181389139453
N         4.40290908310838   -1.38020598348705   -1.66219926486144
N         3.68178959685714   -3.07621784446766   -0.21858763505711
C         0.55574522556812    0.37821450564274    2.39680921870622
N        -0.63466470848301    0.88863848263350    2.51095354452608
O         1.56523820251815    1.12052656666057    2.82577870646499
C         2.02159201058165    2.38911530549938    2.26336489580357
O         3.24752582112280    2.40665682600425    1.49120949451792
C         3.55175375773661    1.59088619847380    0.32079982314360
H         0.75475048420628    0.65088358962589   -0.92537157148620
H         1.44295673760462    2.11387301476033   -0.44984227595892
H         0.42162046663900    1.22135322290747    0.66756427898198
H         3.78518606160764    0.43908924400184    2.35055909234334
H         4.13978106738518   -0.97919572274641    1.31365153669350
H         2.41033693538179   -0.99232329073334    3.62235174587100
H         2.86294922829513   -2.26710895007250    2.43662878536118
H         0.24821970185461   -3.01327977009868    2.37078314763677
H        -0.97661833430754   -1.85399556776733    1.95674763796487
H        -0.14434566778451   -1.70461970609945    3.62835082463789
H         0.25377012766596   -1.17439089445155   -0.18556286637613
H         1.12935412230167   -2.59479895405275    0.04602382426479
H         1.93519532329117   -0.71841218538508   -1.43046152229947
H         4.08270576375704   -0.79637240284124   -2.41075373998062
H         5.21354084334607   -1.94238080342795   -1.89633620492528
H         3.03186720712318   -3.23090789248431    0.54940068099113
H        -1.32617837164673    0.14394297775324    2.42719090510579
H         2.39907346689579    2.97279008177818    3.10945480713672
H         1.19057671526687    2.91387487515813    1.78225604617695
H         4.59686493747832    1.36707308780345    0.54517385925470
H         3.51379757427609    2.22836603309302   -0.56934265353975
