38
 energy: -53.132369784683 gnorm: 0.133848805258 xtb: 6.4.1 (79825abcba525fcdf90b791dcacef51065a7a4e7)
C         1.18007435720196    1.13675169181348    0.01356379682905
C         2.60140900489945    0.39110691950710    0.38336184670101
C         3.36850143900161   -0.39848348056312    1.70130784655625
C         2.43484794097856   -1.34574706644123    2.53137116247583
C         1.03934391308588   -1.12893072645321    2.00090394598867
C        -0.15465308952623   -1.97035242923165    2.43133376140720
C         1.17729593495146   -1.47052331101749    0.34163503756846
C         2.35143010311402   -0.82303653760509   -0.50923139039389
C         3.46737389680808   -1.80988295102175   -0.81194059036513
N         4.03161943191991   -1.59158362220136   -2.04229757284451
N         3.78359676178475   -2.91303335065885   -0.20039053906486
C         0.69814419965982    0.40381482568150    2.47986391907016
N        -0.49593865106293    0.91589282058818    2.53065403488514
O         1.72711063905798    1.06626232122426    2.98633154683224
C         2.20662002135813    2.35897947170740    2.50379802426177
O         3.32420083124126    2.33550225181769    1.58189383803617
C         3.47647672183494    1.62132797042759    0.31909444528853
H         1.24587954865455    1.28276063800553   -1.06927950818221
H         1.13593484169247    2.16487185820298    0.40569243191403
H         0.19593484921031    0.71101266663174    0.17709595508747
H         3.89693357682127    0.32617454971366    2.32610817060467
H         4.20518790674055   -0.99998668441037    1.31088643700110
H         2.42772305105538   -1.15832731184239    3.60921634071060
H         2.67481410752101   -2.40453388140299    2.37061529677648
H        -0.01305683300020   -2.97860171841506    2.04549903753296
H        -1.06957826803784   -1.52686537868131    2.00150039416780
H        -0.26580053590071   -2.12291001367726    3.51049460119884
H         0.22564204647974   -1.22581787994220   -0.14261032810694
H         1.20104755402839   -2.57109427117741    0.26235936251213
H         1.98350226854703   -0.58876166438990   -1.52301748213458
H         3.89299142461596   -0.70673982967523   -2.49125119988906
H         4.70754935053268   -2.27731572135473   -2.35990538487098
H         3.38964632764297   -3.05085689215627    0.72801772443172
H        -1.17053210425796    0.38913954323366    1.97636766846444
H         2.58369871199758    2.83602075394709    3.41444609350623
H         1.27426675429643    2.87981042108057    2.26530848358053
H         4.56349474774496    1.51708794122147    0.33390059959492
H         3.22479144629916    2.25665917783382   -0.53716697805526
