38
 energy: -53.129024148009 gnorm: 0.149095367251 xtb: 6.4.1 (79825abcba525fcdf90b791dcacef51065a7a4e7)
C         1.18215606918016    1.18785775984838   -0.15798244756554
C         2.52357094644681    0.34822425656127    0.29869096425604
C         3.30128827132314   -0.31602296237693    1.67810999240069
C         2.48395283217735   -1.30654930196245    2.57746676980440
C         1.08713191475020   -1.12391744655815    2.03767682197685
C         0.00534158747809   -1.97504043889152    2.68898970225028
C         1.14853081628553   -1.64245269073188    0.42019702650684
C         2.25061439952812   -0.93736519110243   -0.47984031505304
C         3.44628371868080   -1.85408586299510   -0.68189808505341
N         4.50471067732237   -1.22896714689806   -1.28915823227360
N         3.48070747796642   -3.15044564066624   -0.58599448109058
C         0.67764946350396    0.42222120754244    2.40768784576642
N        -0.54610391708521    0.86153628721454    2.39948660604852
O         1.70990997101970    1.14518734973059    2.81496692679392
C         2.05343270972111    2.43302026165789    2.21716763664654
O         3.27408243017890    2.28523564069812    1.45060430379656
C         3.43085399977335    1.55247800975161    0.19905163321995
H         1.24946932691644    1.27584707987401   -1.24698445035695
H         1.34309469050444    2.24447055503437    0.10737090622299
H         0.20970961667667    0.84930885084665    0.18298615566088
H         3.70378980669106    0.49483693313568    2.29068160151340
H         4.03615497138071   -0.84348305152339    1.04879606075371
H         2.59377005911326   -1.06765538075376    3.63944464845952
H         2.82261393107873   -2.32791389356174    2.36164565487616
H         0.21696882938539   -3.03693529828619    2.80334777209327
H        -0.93451231976987   -1.99901993391065    2.11052174393647
H        -0.26666050582242   -1.59616399221826    3.68029348309738
H         0.16289806301703   -1.38242572640574    0.01903186571728
H         1.29373507005817   -2.73528978666359    0.36796676345150
H         1.91946240010606   -0.81651223967953   -1.52566570936681
H         4.53227200088743   -0.25391679569559   -1.06059136846929
H         5.33896717487501   -1.80374345733101   -1.24875053867020
H         2.57510960849162   -3.60087142845557   -0.47135031648881
H        -1.18849474693997    0.16445316495570    2.02373688113239
H         2.40330607150568    3.08753932145404    3.02229499268168
H         1.13324687249158    2.84674906940465    1.79347996048260
H         4.47328725136774    1.26061273473975    0.34341567778205
H         3.30967966581811    2.15956913390282   -0.70479126762844
