38
 energy: -53.136292784678 gnorm: 0.145734757170 xtb: 6.4.1 (79825abcba525fcdf90b791dcacef51065a7a4e7)
C         1.12318534510324    1.04202681050799   -0.08798505011120
C         2.49716094568078    0.27864940124354    0.40433078105000
C         3.27106482748462   -0.38878035602458    1.78435823155335
C         2.36048266527391   -1.39840452526010    2.56507676769253
C         0.97537291341653   -1.10929732699657    2.04189010599046
C        -0.16692642925908   -1.88402188425929    2.68519656166606
C         1.17841296903719   -1.69775088887599    0.46031283899010
C         2.29903685940806   -0.99371203545418   -0.41737457003250
C         3.53787753668299   -1.79691451623217   -0.77927064668840
N         4.49704798013645   -0.95073437853865   -1.27300857628475
N         3.74672697287047   -3.07718690594192   -0.68863032998464
C         0.70056751499989    0.47596667421601    2.36830823821748
N        -0.46907423939468    1.04392220490865    2.36688738774057
O         1.70597722357871    1.19576593153048    2.84281681509009
C         2.16265649822255    2.42288983801158    2.19513137745992
O         3.37434613491385    2.23616781771118    1.42286944639381
C         3.41981538099345    1.45616009325584    0.19103517954322
H         1.21211766692303    1.02043934229744   -1.17877539749935
H         1.03085563674654    2.05903729032463    0.32421532205326
H         0.17323261861515    0.54695133368663    0.08235915022746
H         3.74518047592194    0.34727592023911    2.43871343875371
H         4.00958503094270   -0.98012099382718    1.21939504847590
H         2.28855615797680   -1.15801926649728    3.62995641617702
H         2.68691188881078   -2.44147712269303    2.46558184166184
H        -0.08662589665827   -2.94082287798309    2.43578116380140
H        -1.11488714631895   -1.52451435899514    2.24856126468136
H        -0.11991681691996   -1.82057579690474    3.77789065276232
H         0.19585988888734   -1.70221588341734   -0.02403097610879
H         1.32143009647001   -2.77119205066741    0.67332779454698
H         1.86487267948785   -0.83266732158938   -1.41916492365061
H         4.19874447527405   -0.24962983073649   -1.92354147351182
H         5.34048462711133   -1.50315815036849   -1.37990615342475
H         3.01182563093498   -3.57340841986482   -0.18881196382789
H        -1.22758764234348    0.42868088408343    2.07377606712736
H         2.54226666607044    3.07023040837265    2.99255406070548
H         1.35446940728349    2.99080794565688    1.72425199062255
H         4.46818656615883    1.17884839329792    0.06177002814365
H         3.16950367822530    2.04517099556121   -0.69811332185712
