38
 energy: -53.122008322678 gnorm: 0.152046458292 xtb: 6.4.1 (79825abcba525fcdf90b791dcacef51065a7a4e7)
C         1.09139849709022    0.99649076189761   -0.07291614953309
C         2.50661381749009    0.28454474244258    0.37789130770484
C         3.28873015460920   -0.39541144595797    1.74713163783311
C         2.38274459396385   -1.40029037032944    2.53923692425714
C         0.99925609754463   -1.08762210743395    2.02539411495836
C        -0.11059814907698   -1.88224341260700    2.70044202068809
C         1.23789715811546   -1.65942615352606    0.44268121747906
C         2.35331427125676   -0.98200780090317   -0.46216842580007
C         3.49228613812709   -1.93921828292555   -0.77413061785362
N         4.53189758844968   -1.20246297277672   -1.28029814463138
N         3.57041850802088   -3.23544400276423   -0.84214068344468
C         0.74205118929340    0.50367073563049    2.33645924531297
N        -0.44177401967598    1.03848022813515    2.39279781963089
O         1.73554010559314    1.22005543778316    2.84033501571543
C         2.17714787007603    2.50218340501935    2.29718132338458
O         3.36037489693085    2.34582136197852    1.47561568692674
C         3.28707965057764    1.57126116943177    0.24168721802872
H         1.41194385928055    1.28587960071444   -1.07875079558974
H         0.75657310241160    1.97964788111098    0.29319621817959
H         0.18393157360150    0.41572835918400   -0.19839870482670
H         3.64640316347398    0.44925872816376    2.34156208157234
H         4.24100745505311   -0.73951072698992    1.31234104645173
H         2.34252332071595   -1.16679825956848    3.60731503256981
H         2.64847988381561   -2.45748313195017    2.41202078070827
H        -0.10438233760862   -2.94921229361277    2.48359339517056
H        -1.10848783620370   -1.64965117227696    2.28978086187640
H        -0.07097560919463   -1.77192884356214    3.78969701439101
H         0.28769305733717   -1.52684811377993   -0.08604808257031
H         1.43951482960775   -2.74095377666868    0.53073529467067
H         1.86541351739450   -0.85191299739686   -1.44351751786392
H         4.53189350731440   -0.22128917774088   -1.07775529851036
H         5.34536718794242   -1.68915558678449   -1.63999523520181
H         2.79488317591547   -3.71279657036033   -0.38737299587536
H        -1.12371703212201    0.41646125541961    1.95941018406786
H         2.53318745075047    3.08484235063236    3.15320760816064
H         1.33028467419820    3.00473355695855    1.82001172720562
H         4.35872216355772    1.42979322567677    0.08592283812925
H         2.82430662707277    2.20413486042177   -0.52348392040931
