38
 energy: -53.123892031596 gnorm: 0.158431344939 xtb: 6.4.1 (79825abcba525fcdf90b791dcacef51065a7a4e7)
C         1.08846041766153    1.07840125833214   -0.05963391394263
C         2.50887492351853    0.34784649488451    0.34241243453937
C         3.21592865680596   -0.45391720012645    1.68633038977301
C         2.34244922094472   -1.44583359535303    2.52963212313006
C         0.96760031590236   -1.12779153102105    1.99626918199799
C        -0.20356527272776   -1.88263946673870    2.61065090251737
C         1.15320070871322   -1.63864298936372    0.38584289620307
C         2.30062907173828   -0.93641150438161   -0.45800715758238
C         3.58441178894143   -1.71125607865653   -0.70770105995489
N         4.35413430467183   -1.34189542675498   -1.78050386346192
N         3.83503541641001   -2.87073410394562   -0.17503825382952
C         0.75675883625086    0.45676757514034    2.37023057057345
N        -0.42740629631176    0.99335867410729    2.39168504216917
O         1.79380882987227    1.10172502923446    2.88274912152008
C         2.13761238968352    2.37929460864554    2.26347489052831
O         3.41411408943060    2.27124467394847    1.58648596036305
C         3.42156211589935    1.55188075852822    0.31748823015404
H         1.36848269584302    1.41407577887531   -1.06318197095541
H         0.74074267511152    1.97224514879203    0.48154969913343
H         0.23099647043020    0.43227581254642   -0.21392113090893
H         3.58032664749418    0.29190494919833    2.39746235113541
H         4.14974825253434   -0.85514587992444    1.26056550104811
H         2.44359087155247   -1.21567787033054    3.59439776246812
H         2.66527603644170   -2.49475616893368    2.52969506890218
H        -0.01806118771438   -2.95426132126315    2.66260658048109
H        -1.10362623890725   -1.81888504505182    1.97476475116564
H        -0.37215501325937   -1.53266587087177    3.63501005432249
H         0.20697313967961   -1.46789261789879   -0.13905436419279
H         1.29065134762978   -2.73371625464674    0.38064037726755
H         1.76426626300980   -0.73776787354290   -1.40186810504772
H         4.07755162218761   -0.52964728647046   -2.29768912273386
H         5.25316872168691   -1.74352915478185   -2.02218949122446
H         3.30951115829741   -3.09334888142821    0.66781469241357
H        -1.16185755357638    0.47470628201354    1.91068632873477
H         2.34711622123536    3.05952245533433    3.09560159639146
H         1.33316626100747    2.81658996554460    1.66425543729043
H         4.42147831270281    1.11810556972187    0.24893102511595
H         3.32722103612729    2.21397445102274   -0.55021364610341
