38
 energy: -53.131807783699 gnorm: 0.152737895035 xtb: 6.4.1 (79825abcba525fcdf90b791dcacef51065a7a4e7)
C         1.17400487990171    1.06461864532649   -0.10326438528515
C         2.58727314741044    0.33132442631770    0.31849537644521
C         3.37114444224960   -0.36423556350697    1.67886574838535
C         2.40862017968531   -1.31293981480704    2.47355408049743
C         0.98356768693098   -1.17908813163825    1.99695635545903
C        -0.02678806056956   -2.01946864416911    2.76626187686634
C         1.10533982950311   -1.67452124574020    0.37565838395046
C         2.23419166089175   -0.93421557575420   -0.46066982386135
C         3.43534856670366   -1.81893445856060   -0.75277224728883
N         4.45049078504918   -1.15633533145713   -1.39328343721879
N         3.66233824575588   -3.00640556221254   -0.27389937602921
C         0.64905587878960    0.41051139667205    2.23445158778763
N        -0.55443525978851    0.90214430235677    2.25776492863587
O         1.65509806275775    1.11683576352202    2.72750642046620
C         2.16128040869302    2.42308060711563    2.31351450436526
O         3.34776736554472    2.31931979738281    1.48833102986349
C         3.42744458676547    1.58422243862895    0.23088180216846
H         1.24511553482782    1.32265712506241   -1.16465873952029
H         0.93696208860230    2.03001151559723    0.37062542937780
H         0.32451726708836    0.40343241163908    0.02989200234440
H         3.78019771897313    0.35285627308722    2.39524549567796
H         4.22518678687367   -0.92993246928911    1.27281413864147
H         2.63852598756770   -1.07573525378067    3.51653273139592
H         2.66794937820520   -2.37916060225011    2.45412931369266
H         0.14404508919615   -3.06659518354463    2.52166710865873
H        -1.05342371071063   -1.76367278997305    2.45143924782896
H        -0.07598315751121   -1.73061869478325    3.82189497480058
H         0.07984479532514   -1.48788908307710    0.03868983133391
H         1.32334691010531   -2.75461318768124    0.31257503224072
H         1.83145942972442   -0.65596123818792   -1.44981041662983
H         4.20627649257918   -0.26291452038068   -1.77523140941630
H         5.24181185447104   -1.68241268340584   -1.74689066167267
H         2.83523261173459   -3.32184541767425    0.22862241140600
H        -1.27214635257016    0.24774604329585    1.94722923327940
H         2.59428486871022    2.87934671243027    3.20982081760268
H         1.35892943862134    3.00069908863758    1.84445741086277
H         4.50837743204080    1.43250684586959    0.19538599871404
H         3.13607630668367    2.27249745017273   -0.57009065290273
