38
 energy: -53.132565757808 gnorm: 0.146509056868 xtb: 6.4.1 (79825abcba525fcdf90b791dcacef51065a7a4e7)
C         1.19856553918573    1.32500110080075    0.01621286353494
C         2.56792220003400    0.45206074799073    0.29146979665323
C         3.32880471480688   -0.39459240116499    1.57719982800611
C         2.41952961237776   -1.46071957967706    2.28048774412885
C         0.96628302231370   -1.18350724033276    1.98542173650360
C        -0.02069055298076   -2.15605781590995    2.61702102876918
C         0.96110150546495   -1.37454503626477    0.29652645659491
C         2.20270286691809   -0.79734396419519   -0.50787942126347
C         3.32049412730487   -1.79913305696237   -0.74827610700074
N         4.54151322141767   -1.26229971129888   -1.06565325602752
N         3.36394889962035   -3.08578434845892   -0.56505136583048
C         0.69861469520478    0.37261197404840    2.43483852792752
N        -0.48228382760655    0.88198573963307    2.62629188703610
O         1.77890106453431    1.03443101640493    2.82096669840371
C         2.27818863895605    2.33474393493931    2.38075800999197
O         3.36218568712183    2.36388274980360    1.41974464224856
C         3.51673766358006    1.62213923930580    0.17321931118665
H         1.10297739987471    1.36008854769661   -1.07366343140347
H         1.29170329729985    2.39879959483829    0.24210308226387
H         0.21493133349761    1.00749068152692    0.34511701185897
H         3.72342953363099    0.21690707598090    2.39272718765566
H         4.13438506588374   -1.03519462037266    1.18356506443316
H         2.64991924676576   -1.42218846391255    3.34930163110031
H         2.65497416038116   -2.50756398449833    2.04997010782755
H         0.38847204405536   -3.15651574478728    2.48604599303054
H        -0.96019196793723   -2.08478230626148    2.04188412113489
H        -0.21811887670946   -2.06190022959464    3.69050697968354
H         0.03716700135030   -0.96130623995121   -0.12251789430614
H         0.98139495635679   -2.46883819287762    0.15434390955353
H         1.93823331479807   -0.63489342616827   -1.56697503931734
H         4.43660926757752   -0.40028025800895   -1.56529637645556
H         5.26359269438771   -1.90182961848555   -1.37804279266607
H         2.55939920898530   -3.56189452848046   -0.16236902907031
H        -1.28950197823275    0.28075417221600    2.46289614825601
H         2.67292317420975    2.74627856410768    3.31556308087370
H         1.41267717028979    2.89437216575510    2.01315647436460
H         4.58570433079052    1.44963528937066    0.03093072884805
H         3.23340381169591    2.25215945110286   -0.67705788569023
