38
 energy: -53.124745579997 gnorm: 0.154953256136 xtb: 6.4.1 (79825abcba525fcdf90b791dcacef51065a7a4e7)
C         1.32151375543164    1.17261836650594   -0.14407296387812
C         2.69453960345089    0.34600413709688    0.23597683832680
C         3.31967655421759   -0.27936412394620    1.70804470600814
C         2.39016980981754   -1.26875606867670    2.49235527119255
C         0.97216537633479   -1.14154040472191    1.99344055593510
C         0.10049679898679   -2.13117070537868    2.75483067018191
C         1.03726496788170   -1.45224333434718    0.32367552207669
C         2.30879406606606   -0.94603673041919   -0.48178857997680
C         3.45728970448081   -1.89209141113465   -0.79286335554249
N         4.35406914396539   -1.40863371114997   -1.71039329391554
N         3.57808280177603   -3.08897067243054   -0.29908181178179
C         0.48868023474355    0.36634318287728    2.42663569024246
N        -0.67687358132181    0.94263236001930    2.43016310699741
O         1.58134431694435    1.06788763374826    2.68747791186473
C         2.05293466694226    2.38602980856883    2.27035776377025
O         3.25440185941517    2.37240629807042    1.46058226831827
C         3.58224432717845    1.56768199460460    0.28890259724127
H         1.25654065755643    1.26068129894910   -1.23321114387266
H         1.36940300701012    2.19698016815693    0.25734173818294
H         0.38256435952376    0.78790526893842    0.23919838567517
H         3.68701781029372    0.49377547356526    2.38779524726560
H         4.17731712486760   -0.87235604763514    1.35154440207656
H         2.44789737488002   -1.04667414326609    3.56206285108644
H         2.73447006266959   -2.29934656820330    2.33809481055164
H         0.37678078576233   -3.16230224000416    2.54054236755147
H        -0.93752582999361   -1.87443149527733    2.48075116974713
H         0.11421217111717   -2.03092071553785    3.84569157681546
H         0.08201951307670   -1.19733626916513   -0.14807433655041
H         1.21037876636841   -2.54183454880166    0.29321545384774
H         1.89375502422238   -0.71794125343334   -1.47865010188996
H         4.50676703186211   -0.42654006504331   -1.58429394349074
H         5.17608206228421   -1.96932617091820   -1.90508076619134
H         2.93629462969007   -3.29916407270457    0.46253544825487
H        -1.45885569360832    0.28835608081985    2.44448939689206
H         2.41448244500417    2.88781461380631    3.17397927886241
H         1.26411854890390    2.99567016351362    1.81921198197416
H         4.65476383416708    1.45338120540525    0.46016444782000
H         3.47152931522572    2.26632147878466   -0.54764978836460
