38
 energy: -53.134498958956 gnorm: 0.155478207181 xtb: 6.4.1 (79825abcba525fcdf90b791dcacef51065a7a4e7)
C         1.17339771981588    1.23501945634557    0.01265341409106
C         2.56316282918982    0.41608507137080    0.34556228643377
C         3.27860510037219   -0.39312677015478    1.68054693674207
C         2.32493404041242   -1.38255962603719    2.43523654167594
C         0.91788489862323   -1.15087417168283    1.94292480386396
C        -0.10521566403305   -2.12201294043007    2.51654824966257
C         1.03707188335170   -1.51132743227114    0.28619385029930
C         2.25469866327448   -0.83427594970004   -0.47590203498307
C         3.43093424216040   -1.75483068471151   -0.75852911989294
N         4.25649831489852   -1.30617356718796   -1.75700629317295
N         3.71047740627506   -2.95030259029874   -0.33000409624387
C         0.62310407441228    0.39743631091718    2.40223699462036
N        -0.52463818321021    0.98619480886399    2.56560306499831
O         1.69644004831113    1.03601206874936    2.84301917328254
C         2.39839585283105    2.24921834201632    2.43158991923580
O         3.58081779130221    2.19624662870283    1.59581619571916
C         3.46451314859219    1.62574374211465    0.25832046190367
H         1.37525074550206    1.42296372349894   -1.04665337436864
H         1.07078582943495    2.21411712674121    0.50619448637286
H         0.25674464725613    0.67742523918371    0.17191073162064
H         3.79982073466179    0.24015780922165    2.40306346349534
H         4.05280860635810   -1.02535898973297    1.21668210026293
H         2.32084295459727   -1.22725909880613    3.51819183563897
H         2.55862991977550   -2.44162549359235    2.26724412267521
H         0.14966029822901   -3.12421521881171    2.17579409376958
H        -1.09521240618367   -1.89750404191303    2.08292655802007
H        -0.24668479924562   -1.96233803801685    3.59112076753317
H         0.02590814411928   -1.24936728021694   -0.04387312611722
H         1.21305898174151   -2.59888519140372    0.35216260905312
H         1.80474388382032   -0.49018731419819   -1.42308815743405
H         4.25601381599307   -0.32343592726365   -1.95181931908778
H         5.14031559002012   -1.75567318656008   -1.96867017919904
H         3.06723538430446   -3.27980832391274    0.38679423448997
H        -1.36023433552778    0.43069150704871    2.38401600956724
H         2.75912953232759    2.73899923825745    3.34209665026722
H         1.64353064020020    2.90046461062058    1.98050062252572
H         4.45361298870666    1.27933569499265   -0.04888691322304
H         3.18687725008768    2.35824274479052   -0.50753746351586
