38
 energy: -53.127291748224 gnorm: 0.162109717117 xtb: 6.4.1 (79825abcba525fcdf90b791dcacef51065a7a4e7)
C         1.16160720882324    1.15527350735370    0.03499142558004
C         2.59998759566715    0.40895366783062    0.32994475039497
C         3.24749936811695   -0.42310206077362    1.68540674550774
C         2.34925326898494   -1.49024285212936    2.40121868052415
C         0.92758974986965   -1.12882218112090    2.04896281442470
C        -0.15719577302626   -2.06905374898830    2.55699241110239
C         1.07350393432432   -1.44839054848192    0.38599118980647
C         2.25776238171959   -0.84028561868305   -0.47977097183684
C         3.45726785336566   -1.73309549304917   -0.75346123298950
N         4.25044641291736   -1.36093223413880   -1.80805508213651
N         3.70118093492639   -2.94965232850919   -0.36432498104198
C         0.71164374685191    0.45066969224172    2.44101064599382
N        -0.48068841543169    0.96855273312725    2.46891227379916
O         1.77007619549754    1.07677636029867    2.93277199827663
C         2.30195823811286    2.33696104448540    2.42001326650563
O         3.50190448964270    2.18026202208636    1.62313198028021
C         3.43033143482802    1.66941546015441    0.25865103787700
H         1.28631589586900    1.49902186074716   -0.99674660995137
H         0.97198548929044    2.10656769623663    0.55636193335216
H         0.31192853590377    0.48187197425012    0.00177113568110
H         3.71696579821723    0.24505836422375    2.41197961998655
H         4.08312391074560   -0.94391048664217    1.19066495515647
H         2.54224632997943   -1.50717089673531    3.47797039947851
H         2.53573756398387   -2.52042002200858    2.07195536742420
H         0.09833329503759   -3.11636851172640    2.40427949891467
H        -1.04831091623674   -1.77306470201722    1.97662196782935
H        -0.33446499779824   -1.85127355775011    3.61593674187191
H         0.10840896950738   -1.21423972310921   -0.07637719956254
H         1.25895867095159   -2.53237354633704    0.29275703549318
H         1.84460054663262   -0.52942328309474   -1.45479904160830
H         4.43002802408215   -0.38049724229202   -1.90916536506764
H         5.07128147610367   -1.93178507765401   -1.97640387678087
H         3.06847899430699   -3.34059989480365    0.33064438934450
H        -1.26214677106569    0.44037450052142    2.08144705255559
H         2.53750927961298    2.85445786860189    3.35582808382794
H         1.57745620990537    2.88749852520785    1.81220569683026
H         4.48288224100951    1.42156350475494    0.10568174436975
H         3.07330897174349    2.40192214839305   -0.47356733912205
