38
 energy: -53.135057043655 gnorm: 0.151081579654 xtb: 6.4.1 (79825abcba525fcdf90b791dcacef51065a7a4e7)
C         1.12124970682511    1.05271166914397   -0.13031951810307
C         2.52638280080869    0.33321538166472    0.33963257641745
C         3.28137942910535   -0.34063608077813    1.72699329035511
C         2.39606413809369   -1.29687733555622    2.59868231628495
C         0.99789364476105   -1.16899155387787    2.04677582653337
C        -0.03433422167492   -2.09167396942568    2.68085147115229
C         1.12035736712181   -1.64212132805350    0.41888135982273
C         2.28255973974315   -0.96590578393633   -0.42599850704519
C         3.49731520968335   -1.82888642348410   -0.72676882008393
N         4.32541795281320   -1.12617350889756   -1.56357603306949
N         3.83044971522014   -3.01052939973716   -0.29819861209663
C         0.64920774006610    0.42243156494556    2.24906123854241
N        -0.47250324492422    1.07551087367136    2.17231990162916
O         1.57965056249257    1.12331012792564    2.87927030555411
C         2.18704092207995    2.34357627632611    2.35399613586923
O         3.35312637949550    2.24044758795611    1.50014922178894
C         3.41503644786987    1.54919111569693    0.21709552505850
H         1.30162000184298    0.99246473173038   -1.20829698773979
H         0.84338670998775    2.07727922142186    0.16259295297153
H         0.20833714986130    0.47753661879612   -0.01945301583632
H         3.93155077075520    0.37457321574008    2.23738344863651
H         3.99139056661326   -1.01271679932323    1.21859292593439
H         2.39546191636117   -0.94264753183137    3.63379005898541
H         2.78767402089025   -2.31984893966488    2.53066380518432
H         0.26676635756575   -3.11419278599695    2.45886437272805
H        -1.02577048300407   -1.79269970590748    2.29849810366617
H        -0.00798498091496   -1.94644915715896    3.76640716398740
H         0.14051808944256   -1.49943251854785   -0.04970622325907
H         1.25509783578961   -2.73094746954627    0.53891404175515
H         1.86737023195634   -0.73312931089630   -1.42171464655935
H         4.17971994389326   -0.18523081703287   -1.87522415530788
H         5.21735944739901   -1.57032761858310   -1.75106465032819
H         3.17685187895653   -3.35695799893695    0.40103759099946
H        -1.31088951213368    0.63769445916730    1.79126352323059
H         2.48996627252894    2.85111110616249    3.27577770373930
H         1.40619757390469    2.92509391231433    1.85445068572393
H         4.49685413999544    1.44979978598552    0.10535820203218
H         3.11902526072061    2.27410943785763   -0.54909351390944
