38
 energy: -53.123104857618 gnorm: 0.166096697337 xtb: 6.4.1 (79825abcba525fcdf90b791dcacef51065a7a4e7)
C         1.14109006300927    0.98482303045411   -0.20115261308763
C         2.53065956767283    0.30215546699140    0.36097770744600
C         3.31572358383457   -0.28521412126458    1.77077802125840
C         2.46444667926868   -1.29948027061134    2.61019095964695
C         1.06938314037430   -1.05896287422208    2.08886055932977
C        -0.02615812927710   -2.00894372166025    2.55384966100830
C         1.14257863503262   -1.65957357735747    0.50052849147672
C         2.28280067975629   -1.00476852612487   -0.38993647580466
C         3.50408324985827   -1.83745011424969   -0.74481602669683
N         4.49938566900013   -1.09168727308406   -1.32189209503514
N         3.64557637137298   -3.11046080525448   -0.52041764644124
C         0.70098496701300    0.51741067499779    2.36173053528085
N        -0.51256339372236    0.97122456710928    2.47123255030427
O         1.65185354308771    1.24136344848147    2.93257150049213
C         2.12607335595377    2.45912440819940    2.27983932723368
O         3.21109781125136    2.38650875388842    1.32229336492565
C         3.43718177975227    1.49854846622418    0.18725692544622
H         1.29057454821587    1.03172158490693   -1.28450549875373
H         0.87342958741773    1.97157443733492    0.20802188259617
H         0.26355551411945    0.34935385039762   -0.14978046230926
H         3.79090926755346    0.48660138878051    2.38171550853551
H         4.05814548833642   -0.95288889578174    1.30462423683576
H         2.48700070068498   -1.16316353615154    3.69547259035273
H         2.71160559422496   -2.34896911372315    2.40539503635149
H         0.13161934662409   -3.08463340125537    2.49483664965529
H        -1.00140329021066   -1.84259113357783    2.06420769193120
H        -0.20146773642100   -1.79152555914727    3.61319454357760
H         0.22893112087371   -1.59591884091350   -0.10048376183792
H         1.21110397928919   -2.75327745866220    0.63175844185423
H         1.84289376747649   -0.80710122148639   -1.38262343179625
H         4.31657180049571   -0.19719471773594   -1.73443030436244
H         5.11868159544690   -1.67831477658913   -1.86991145446589
H         2.95144817892124   -3.71325183415036   -0.08342428977772
H        -1.22090305557349    0.32983001729358    2.11535803157303
H         2.62005971088644    3.06641547628825    3.04548393771170
H         1.29951605766340    3.02226999253754    1.83588568691818
H         4.50756597190171    1.28424764278568    0.21960242811888
H         3.16167119979414    2.05426941506008   -0.71576189970972
