38
 energy: -53.123828311303 gnorm: 0.160937769305 xtb: 6.4.1 (79825abcba525fcdf90b791dcacef51065a7a4e7)
C         1.14395914943188    1.05971309584109   -0.12004998803612
C         2.55526857042859    0.30007110270768    0.25952697975958
C         3.29046434093091   -0.34993429655397    1.66872733252251
C         2.44332128660620   -1.35544038986768    2.52273460276610
C         1.05442784430490   -1.11917754585567    1.98329864301130
C        -0.02569247789240   -2.01227395576373    2.57878839203076
C         1.03464673326585   -1.54548821111423    0.33807602686476
C         2.23539763464076   -0.96969816877730   -0.52706379913824
C         3.49410666476279   -1.79807936644068   -0.72772624391654
N         4.42185472604798   -1.17943041282834   -1.52544983100866
N         3.76862972992267   -2.95130880861792   -0.19328250898037
C         0.66083145434471    0.41518477200899    2.41450967274106
N        -0.52245918968682    0.94756454812790    2.49836894404257
O         1.65818906866293    1.13281353085319    2.90888282803110
C         2.16846362457072    2.36061859063845    2.30390342496546
O         3.28395334210081    2.32687887851552    1.37978780100139
C         3.44411210349715    1.51918729244118    0.17567874357035
H         1.29210075145268    1.31737566793130   -1.17355016700840
H         0.91973035191974    2.05625007256698    0.29150770970158
H         0.27396317885937    0.42704531598868    0.01911018706242
H         3.76298075575517    0.35757124626403    2.35495570293248
H         4.12489250873024   -0.97086037621022    1.30477723555176
H         2.24064016093839   -1.05165687228783    3.55402656034646
H         2.87710367532617   -2.35570403721700    2.39719099242827
H         0.21974940061091   -3.04491666248475    2.82146488304063
H        -0.92096076853489   -2.14438477429185    1.94667527963929
H        -0.30110894243158   -1.59225784235965    3.55241456690935
H         0.03271043351254   -1.49902422415307   -0.10236031265636
H         1.09262384489139   -2.62759267451959    0.54734570869451
H         1.80873093669199   -0.89556386092261   -1.54218816298805
H         4.34162796888408   -0.21626083348012   -1.78925590548251
H         5.27621332102563   -1.70094083530573   -1.68695140298528
H         2.96271757823731   -3.34371475515750    0.28906317079031
H        -1.30581101837729    0.38602421687725    2.16548595920024
H         2.71729511543575    2.89016481310988    3.08965238129492
H         1.33045965010667    2.95900288753710    1.93361931936074
H         4.51495032702928    1.31502846388712    0.24139074200525
H         3.30852545373669    2.21659576000281   -0.65823524074311
