38
 energy: -53.130239917089 gnorm: 0.161917022879 xtb: 6.4.1 (79825abcba525fcdf90b791dcacef51065a7a4e7)
C         1.15168483365827    1.04102395617179   -0.14720511992988
C         2.55160573964965    0.35841623980288    0.38870257326204
C         3.31933238631274   -0.28576883672165    1.78315115592693
C         2.37181395733633   -1.20127475605202    2.63290406777871
C         0.99778810359299   -1.10217872363260    2.01803072007552
C         0.06210460619415   -2.01587337541965    2.79812534385649
C         1.20667949950763   -1.64857289169572    0.42219008211458
C         2.35871371165688   -0.93300730571054   -0.40399808460135
C         3.49338118945732   -1.87559626712879   -0.77126499931753
N         4.43283124151693   -1.25488556497533   -1.55354227459155
N         3.53699264844957   -3.17481166719147   -0.73857651502188
C         0.59646634174861    0.46329822994236    2.30673741540706
N        -0.59921610600949    0.97286024478846    2.34317081318104
O         1.58547091631338    1.18073315704809    2.81788822258985
C         2.06438976168813    2.41596884906718    2.20248997652950
O         3.31458016782790    2.35553076381315    1.47254712752519
C         3.47923381161016    1.54538626268886    0.27069430005861
H         1.26061352135413    1.18859917869255   -1.22635045355596
H         0.74636364894084    1.98078839152918    0.25936808678411
H         0.35685593398826    0.30293968464707   -0.14959059438797
H         3.86103914896098    0.47362245457601    2.35290889613394
H         4.12078988613068   -0.82090196091516    1.24875649675228
H         2.47002280516974   -0.98364750990707    3.70057469082129
H         2.69314801915535   -2.24058025094319    2.48783771720553
H         0.27557265809154   -3.08309233253871    2.82910341570125
H        -0.94137400576821   -1.80893014610549    2.38735685732747
H        -0.00992145138689   -1.65380023583901    3.82959564465920
H         0.17703463939405   -1.54098249754313    0.06403479488447
H         1.40180445544309   -2.69779962291485    0.70353458339024
H         1.92230630559480   -0.78172941740639   -1.40633606462186
H         4.59465745315330   -0.27066570310767   -1.45947231496750
H         5.27280095277789   -1.78690292175258   -1.75201873194602
H         2.88931915464121   -3.65088052280394   -0.11406737907194
H        -1.33980104979517    0.34676555137256    2.02802308473868
H         2.45522153812804    2.97651119123203    3.05810638483728
H         1.23525709823382    2.91917421531168    1.69578677289037
H         4.55843648522391    1.38801090088876    0.32768532527955
H         3.31673206257634    2.10557875872872   -0.65664188067617
