38
 energy: -53.124074087175 gnorm: 0.152712606684 xtb: 6.4.1 (79825abcba525fcdf90b791dcacef51065a7a4e7)
C         1.11863546936961    1.03732465261042   -0.27200125659579
C         2.51113394068966    0.40134745081494    0.33578976374164
C         3.29489475255285   -0.26417626357192    1.71116704820648
C         2.47890781500256   -1.26450642256629    2.60084518013185
C         1.05129440419280   -1.11126166725117    2.13794961109467
C         0.06590476368304   -2.09585971297822    2.75314316635703
C         1.14366745332045   -1.61940837386435    0.51864613853310
C         2.31352080592493   -0.95977458120242   -0.32877951781579
C         3.45942687578795   -1.88805511460933   -0.69759352456589
N         4.62055540028846   -1.26344486626294   -1.07368992234179
N         3.41870020654588   -3.17356155043440   -0.88928522744244
C         0.68228512423573    0.45999036030985    2.43816298336698
N        -0.44439006078983    0.99159045192657    2.06581670766454
O         1.70902107018164    1.16025825424739    2.89593614222611
C         2.03865365279311    2.44091424984504    2.27533315181615
O         3.20734492548837    2.44929141365109    1.41886603801364
C         3.41163615647703    1.61118946195721    0.24253896955524
H         1.20423711930488    1.04964082022188   -1.36320207638420
H         0.82720536892414    2.01589275416759    0.14057262473950
H         0.30718011453457    0.35425373842642   -0.04510612459952
H         3.59086566527641    0.58409863768562    2.33372319332774
H         4.09185934707262   -0.84888317327941    1.22408953195813
H         2.74823637917530   -1.13888437610648    3.65374991783277
H         2.79208547898323   -2.29778050544515    2.40407079341304
H         0.21202224600122   -3.13910843021198    2.47788627481839
H        -0.98873861477546   -1.89345793963180    2.49763105763167
H         0.02170686569479   -1.92218564001632    3.83392971299447
H         0.15902221158475   -1.51375135169967    0.05031956003689
H         1.44338357084672   -2.68152246501782    0.53239854989552
H         1.79765952304773   -0.86153225035000   -1.29947691967539
H         4.63379194586303   -0.27012664603324   -1.20357188950577
H         5.17157104900026   -1.80961083345850   -1.72642951847256
H         2.48390794926794   -3.51831984880724   -0.68086418686256
H        -1.20865898062738    0.35223777341614    1.84925288585637
H         2.49007124255108    3.06120479211632    3.05667714679973
H         1.19533189658594    2.95442780567760    1.80359487707185
H         4.45698189309860    1.32010733070701    0.36589571072794
H         3.28654337033930    2.27458207127547   -0.62026859188036
