38
 energy: -53.130580628827 gnorm: 0.153632035129 xtb: 6.4.1 (79825abcba525fcdf90b791dcacef51065a7a4e7)
C         1.15394456338286    1.13208659838350   -0.02924799203988
C         2.56834392636468    0.36723059129319    0.32768150105386
C         3.25573426560866   -0.40129636999741    1.70089901148286
C         2.38463665569885   -1.27429778827791    2.66892781461520
C         1.00359455454181   -1.12357119705272    2.08084574757973
C        -0.03531858847308   -2.05792263001580    2.68626793963330
C         1.16079195741834   -1.62526379351603    0.46452799607360
C         2.23434967535299   -0.90139698512872   -0.45487100411163
C         3.39288216435689   -1.80197496034255   -0.85184842833265
N         4.46377490101947   -1.12987127346883   -1.38219861331500
N         3.37976488100049   -3.09525425968051   -0.98671051429882
C         0.67074722677069    0.43663961816229    2.46825209141226
N        -0.50835898892936    0.98466442984538    2.47208482007001
O         1.72361268784336    1.14270648311971    2.85173867779010
C         2.28533083825693    2.39185490309886    2.34381505580583
O         3.38468808859006    2.32778920088937    1.40213857728556
C         3.53487288232752    1.52126274273229    0.19596497318222
H         1.28694432581022    1.45218784865444   -1.06753736262408
H         1.05072817247402    2.01625168442977    0.61909044107913
H         0.20441656445437    0.60844686613092   -0.00232076753311
H         3.91406525239478    0.27424296979468    2.25315995739464
H         3.90156086069617   -1.08982209711030    1.13246293094334
H         2.47841851589783   -0.95760494315290    3.71192242907218
H         2.61473600946165   -2.33800727545865    2.52739282498657
H         0.18217523131542   -3.08783217740006    2.40793841609158
H        -1.02993829488889   -1.92861961880034    2.22524956797139
H        -0.05597296581178   -1.92552554235626    3.77358578749458
H         0.18223859682850   -1.69866912814945   -0.02236461920592
H         1.52224608114235   -2.63936718735313    0.70753097974888
H         1.82626762170434   -0.63262345115678   -1.44444044984953
H         4.21283225488102   -0.23203400679777   -1.74913410893512
H         5.09806848773829   -1.65263590529906   -1.97580898981988
H         2.60097689267797   -3.58653756846266   -0.55281633468424
H        -1.30129366740829    0.37538295418120    2.27256191110973
H         2.66839054699161    2.67390890049522    3.33009464875601
H         1.57632568959504    3.19724910666959    2.12916040435200
H         4.55080305412693    1.12054827857460    0.19865054171309
H         3.25394371384432    2.21419871201620   -0.60471811175089
