38
 energy: -53.123781054635 gnorm: 0.157646671359 xtb: 6.4.1 (79825abcba525fcdf90b791dcacef51065a7a4e7)
C         1.09749396334803    1.09043583055438   -0.07368161332256
C         2.50000337831665    0.32588633207696    0.32801518658351
C         3.27436474234081   -0.40716956218277    1.67406831285583
C         2.36492536363121   -1.38902046222049    2.49071456963317
C         0.95374701359752   -1.14211893682990    2.01800789659224
C        -0.13606960568682   -1.91461002728080    2.74906631327383
C         1.13386575721216   -1.62689796081682    0.39892294252881
C         2.28958572018946   -0.96297503305267   -0.46439712972825
C         3.53674123049405   -1.79723443296215   -0.70820778894045
N         4.44893859107769   -1.15743737382997   -1.50718314435261
N         3.87911051516974   -2.95018850215237   -0.21382802616947
C         0.62762404977673    0.43095134659261    2.35597611067461
N        -0.58880474694699    0.88298882149569    2.43721929860286
O         1.69188741209589    1.11987499946776    2.73918069541456
C         2.20208148131615    2.40134926543770    2.25812853736751
O         3.30259936376367    2.37514806274834    1.31599305952468
C         3.41062093603985    1.51718610518335    0.14120466181447
H         1.04532484513787    1.07926401313483   -1.16700321869624
H         1.04427442581280    2.10049635655526    0.36185214681499
H         0.19689081909058    0.55794910515490    0.21249827249791
H         3.80679096047670    0.33425029658018    2.27537035936183
H         4.11517272352486   -0.90545983300688    1.16512039603280
H         2.46416299797952   -0.97366426768289    3.49796741332971
H         2.85651879458739   -2.36500194968602    2.38946359416408
H         0.15053058365309   -2.95815565389548    2.62924384014613
H        -1.03926536635119   -1.88004521501451    2.11537217019542
H        -0.34302855528557   -1.46007672711167    3.72414742018658
H         0.16527018479224   -1.43151847794424   -0.07401354000610
H         1.26048900691010   -2.71651001342503    0.52064942352061
H         1.82892366385117   -0.80478074875770   -1.45474196342365
H         4.36133385209179   -0.41846826373772   -2.17798540792166
H         5.23193714797661   -1.80085732606149   -1.47704145065825
H         3.23937928946757   -3.45300774692495    0.39776901244154
H        -1.35027210301842    0.21286685875505    2.33289896746779
H         2.72143305589687    2.73296500826910    3.16330342177452
H         1.42783654105813    3.10739290457918    1.94273688092700
H         4.45725993501665    1.21069861860311    0.08371006765879
H         3.20304048482626    2.25435895263728   -0.64216076905842
