38
 energy: -53.125966865126 gnorm: 0.148388452672 xtb: 6.4.1 (79825abcba525fcdf90b791dcacef51065a7a4e7)
C         1.08298658306573    1.30969746350164   -0.04369354701665
C         2.43993681647672    0.43756144828067    0.28946363240145
C         3.29680408176218   -0.35077641768539    1.55167096597195
C         2.49803656095446   -1.41140946651096    2.38536769883394
C         1.06031507657927   -1.18360255444883    1.98926517143353
C         0.08077192336651   -2.06829316096124    2.74867735914854
C         0.99273518726410   -1.53314293076549    0.32729524941919
C         2.16858384317646   -0.84742849104503   -0.49061640591104
C         3.33009659902231   -1.80147725863583   -0.71757080981278
N         4.46285377596320   -1.19838792174604   -1.20022010914807
N         3.43606277135279   -3.09106778836805   -0.58850263819807
C         0.69658281144273    0.38389904892562    2.31448257888573
N        -0.52248195861272    0.81335363885180    2.45621185177231
O         1.74583465927631    1.08420806029508    2.71791274849309
C         2.24944189472794    2.39352956651859    2.31055245813294
O         3.45808885581667    2.26054985962558    1.52255861516830
C         3.47456779280001    1.53832809059879    0.25527044046578
H         1.10040830606233    1.49721752781991   -1.12199371889077
H         0.85470354782326    2.25146097509621    0.47948192083474
H         0.15031170898725    0.79833531848282    0.16879972465045
H         3.77862877504160    0.36721776500318    2.22030729926772
H         4.12074229651651   -0.85817649679337    1.02446113396031
H         2.64973810731602   -1.14674235105177    3.43601755095509
H         2.80487173054110   -2.45847412364520    2.26720044258375
H         0.16661305522915   -3.15258360145063    2.69938143806299
H        -0.95674174586669   -1.72266345467634    2.59824114391934
H         0.23009081151135   -1.90486386760890    3.82162210494609
H         0.02412801561710   -1.31527499959611   -0.13568762428040
H         1.08741804282905   -2.61535560695541    0.13247204050722
H         1.78491415613964   -0.67268511903450   -1.51055766018498
H         4.35238022145464   -0.44791660712746   -1.85467715069092
H         5.29997514924857   -1.77013034169123   -1.18225071088192
H         2.68746224791289   -3.59831100122055   -0.12113153275644
H        -1.24929418136005    0.13568175472373    2.22755594724939
H         2.75996679511301    2.84331609757056    3.16851109992370
H         1.49717477647462    3.06102189366007    1.87930668155919
H         4.52469934537258    1.23869622915974    0.24352887137410
H         3.26060209494225    2.35028894760727   -0.44837229010690
