38
 energy: -53.130922705871 gnorm: 0.146771183991 xtb: 6.4.1 (79825abcba525fcdf90b791dcacef51065a7a4e7)
C         1.15905021393273    1.11993399279634    0.02575339605854
C         2.60099587391876    0.38463106102926    0.33079634248868
C         3.32101523702114   -0.37236818703081    1.69365719950322
C         2.34475867547467   -1.36341701025726    2.41668390702336
C         0.95243147693434   -1.07542876413573    1.91237843720351
C        -0.11470941425020   -1.98098251531013    2.51243830262371
C         1.20435848788392   -1.57831527429880    0.30846838768989
C         2.42330340530977   -0.91040367941340   -0.45956234553045
C         3.59849671841947   -1.86769354191495   -0.57508735507626
N         4.33483313790528   -1.51085060862483   -1.67521358325532
N         3.80090508580123   -3.06548022016656   -0.11111636535580
C         0.58315764949331    0.46344568842060    2.34899154494674
N        -0.57362680027687    0.96396201752041    2.66831969193540
O         1.64716607692893    1.11697996651764    2.79046301816505
C         2.10659490524912    2.41308551404088    2.29759283523844
O         3.21324591579237    2.46931452409720    1.36399377728125
C         3.44833606267876    1.62841971851826    0.19543753402043
H         1.21457706928174    1.20928265036789   -1.06380254315000
H         0.98462993976918    2.18299633778627    0.25427089691599
H         0.22662841887971    0.67151093397935    0.35138111221953
H         3.72024868368042    0.32952295684472    2.43034349958330
H         4.14047203867517   -0.92319252585173    1.20441050467507
H         2.49159658303433   -1.29420478137975    3.49861525594108
H         2.70620290222148   -2.33894024693541    2.06715821138962
H         0.01398966041510   -3.01491833575779    2.19637213591166
H        -1.12593081192484   -1.70334865043031    2.16765390176063
H        -0.12217911720304   -2.00203819149438    3.60775403066148
H         0.26957670181387   -1.36887178621417   -0.22288447804792
H         1.33521139412070   -2.67253389018291    0.36903518320240
H         2.14120999020232   -0.64124249336341   -1.49203190919224
H         4.35741806308478   -0.54112124322997   -1.92589365636445
H         5.20486964152524   -2.02976872900910   -1.71698628827741
H         3.17316228793173   -3.39191878717666    0.62066981345071
H        -1.38884888653206    0.40598824910963    2.41562040342973
H         2.50527818945238    2.97903682062236    3.14599567628786
H         1.30976418332019    3.04889239102426    1.89980500246796
H         4.49668026998660    1.32580121695646    0.24115253559939
H         3.22657100290193    2.17812969108699   -0.72587351439609
