38
 energy: -53.125949826377 gnorm: 0.162710964795 xtb: 6.4.1 (79825abcba525fcdf90b791dcacef51065a7a4e7)
C         1.13170198766733    1.14532293260115   -0.05610608534839
C         2.53377433316259    0.40007641731493    0.38176336959796
C         3.30426482303205   -0.33554791601652    1.72863630174595
C         2.46759916668712   -1.40155623896997    2.51707722637391
C         1.06358137900776   -1.14329440126067    2.02935686717610
C        -0.02030524438322   -2.06030749478473    2.57996191121281
C         1.04485327507373   -1.56353872880288    0.38256194304475
C         2.19678187881335   -0.84304521627533   -0.43948027033842
C         3.36365132108315   -1.74934975991306   -0.79705121872924
N         4.08240401079433   -1.43463960319083   -1.92139902117816
N         3.67635591133100   -2.91041842284196   -0.30200925754924
C         0.70999637516909    0.43399948761045    2.31615024136972
N        -0.48938949673443    0.93571733823265    2.33590086822179
O         1.67584258302627    1.12220595950600    2.90575266768944
C         2.25192008182408    2.37562210475916    2.42516120499221
O         3.47972454038402    2.24992906949070    1.66612046285947
C         3.49026091325303    1.56986858342094    0.37565470757688
H         1.31525018300683    1.59531782051586   -1.03692880927837
H         0.85559268130065    2.10865116547215    0.40051914241698
H         0.27828348155061    0.47918958115260    0.01075399847428
H         3.80743949878891    0.39013529013869    2.37279804612409
H         4.10815533443550   -0.75927215743246    1.10534098788145
H         2.48917499688951   -1.28873775416301    3.60507245873555
H         2.77008033497202   -2.43628266307228    2.31140250336579
H         0.24313691171055   -3.11667473291907    2.56688351363668
H        -0.99466515518002   -2.01648625379324    2.06302088489349
H        -0.07633113555860   -1.81845439036106    3.64700636713249
H         0.07855123908110   -1.32273995980700   -0.07383235976960
H         1.22908084970179   -2.65148353547416    0.35929170986524
H         1.82179026788405   -0.48582857372711   -1.41405474006426
H         4.18532000501734   -0.49949315370521   -2.26583337605167
H         4.86316662947586   -2.06817923727689   -2.05186645802318
H         3.04765239010972   -3.17640922907968    0.45305030746035
H        -1.12286680355789    0.20932174160216    2.00298246897427
H         2.74873871012906    2.90294796511361    3.24621864293269
H         1.53712910760222    2.91234728563558    1.79395228903152
H         4.54301216265896    1.30448200686160    0.25742544701260
H         3.26731175306433    2.39043703933475   -0.31509554938195
