38
 energy: -53.127637473444 gnorm: 0.149642249175 xtb: 6.4.1 (79825abcba525fcdf90b791dcacef51065a7a4e7)
C         1.10162001111819    1.17278986672664    0.07001529233519
C         2.55235062403117    0.43226026694976    0.31481218013314
C         3.25854164103334   -0.35029799115361    1.67045309772835
C         2.41957909913837   -1.41540739346534    2.45766723010163
C         1.00217388201981   -1.10410008252269    2.04549432284407
C         0.02691029027699   -2.05862988149861    2.72123312478263
C         1.14763018269911   -1.49949576037348    0.39886313657623
C         2.28276838717607   -0.83647990379181   -0.49202128738505
C         3.38149366728851   -1.83899977797715   -0.80600518622264
N         4.38583050074831   -1.35123664653743   -1.60174418982855
N         3.43210982794098   -3.11789009635547   -0.57620371974352
C         0.66020768257120    0.46464343273971    2.38788547562690
N        -0.55100647474554    0.93671985505885    2.36065561223591
O         1.70624700258872    1.13996367432726    2.83939668048208
C         2.29505163333971    2.39432911741712    2.37705275441663
O         3.47920480813119    2.27435361176620    1.55071595289185
C         3.44581209934995    1.64817786759922    0.23364191682521
H         1.06735307711503    1.58380903103504   -0.94393124576291
H         0.98952276715007    2.03052041991186    0.75154060223878
H         0.27344483421627    0.47653645411637    0.14672335452052
H         3.77805274507104    0.33702937228302    2.34308564379305
H         4.10982727968260   -0.83051369965771    1.16154753276489
H         2.60003621743992   -1.20069433998364    3.51514569037367
H         2.62721771153131   -2.45342191029944    2.16806784841483
H         0.21858834440641   -3.12237287184735    2.59010368939064
H        -1.00450772756416   -1.86784091601638    2.37728253151411
H         0.24543424483055   -1.80023302857754    3.76319955812986
H         0.21066689437954   -1.43390898739359   -0.16489000659372
H         1.24797082214643   -2.59860292486505    0.39950218880183
H         1.82231397947793   -0.58861708191478   -1.46390790577537
H         4.36774591655556   -0.37466475450869   -1.82469240017916
H         5.17537944918691   -1.96514758839319   -1.76820829642049
H         2.62434393087769   -3.50970070267264   -0.09648205380473
H        -1.24015286446139    0.29732933449034    1.96564202959225
H         2.70780932652746    2.72861044251357    3.33461409219838
H         1.49502268793001    3.04361897275140    2.00854072272451
H         4.43374228379014    1.27768862988642   -0.04818263460267
H         3.02591579260985    2.34347504826789   -0.50149328871896
