38
 energy: -53.133023132164 gnorm: 0.149173078284 xtb: 6.4.1 (79825abcba525fcdf90b791dcacef51065a7a4e7)
C         1.04864199431556    1.07224301879118   -0.03159322011992
C         2.46658586964810    0.32229422909316    0.34249354233226
C         3.23050330486468   -0.35619347819119    1.72269283045955
C         2.37585736072069   -1.45074970206881    2.45039418923169
C         0.97399663974774   -1.13407600815190    1.99176516060846
C        -0.06580124293615   -1.93417492801987    2.76477954218092
C         1.10626277764633   -1.59197610067700    0.36028646870355
C         2.29246212343343   -0.95295027591215   -0.48017825380358
C         3.56127156233952   -1.76213799361595   -0.69504356511471
N         4.45961733569467   -1.14253536289541   -1.52502752501033
N         3.90575581142338   -2.92752778572462   -0.23230346247059
C         0.64391514524962    0.42971428135782    2.36691172143454
N        -0.58554627622369    0.85265719070901    2.38037516289962
O         1.64103991510608    1.16204497010037    2.83972459462868
C         2.21451116267351    2.37648829929056    2.26514335994890
O         3.34258551698245    2.23249516057044    1.36727944880404
C         3.36985416249069    1.50929740609858    0.10073430619077
H         1.17031711748292    1.15306888600440   -1.11642542320917
H         1.06910465699398    2.11492050579024    0.32217108422056
H         0.15786073656877    0.50103033519994    0.20663332467769
H         3.78725467976300    0.38021571417855    2.30790616141112
H         4.06771403197733   -0.88140596055835    1.23534358449585
H         2.39131269800057   -1.22715184623586    3.52123138356488
H         2.66011170530268   -2.48436432610426    2.21524315906487
H         0.15954180210773   -2.98522541377761    2.93797869073653
H        -1.03685886896012   -1.77727180067821    2.26382638260048
H        -0.06549521665857   -1.49774234414082    3.76963883797702
H         0.12608881867626   -1.44573410497978   -0.10650226776978
H         1.23109858640043   -2.68208654456214    0.47936818206238
H         1.77850372801641   -0.71300869585048   -1.42690559520035
H         4.37125273475915   -0.20948938418665   -1.87906497448906
H         5.38143938339733   -1.54813284166264   -1.64215687756873
H         3.23854166427542   -3.36796060774464    0.39775874676906
H        -1.27760501499470    0.23859759747318    1.95169785735231
H         2.66978998401821    2.88795322075613    3.11963821500043
H         1.45758693937969    2.96512832282297    1.73789257161637
H         4.40356336868660    1.17636588885796   -0.01457090254399
H         3.11508532470375    2.19559090338925   -0.71429264462182
