38
 energy: -53.131516830824 gnorm: 0.158446672502 xtb: 6.4.1 (79825abcba525fcdf90b791dcacef51065a7a4e7)
C         1.12923688679203    1.07903070939865   -0.09440143836637
C         2.55537419376036    0.34738258139303    0.28474535948133
C         3.22740144340538   -0.33787137923597    1.70870879406223
C         2.34959428588417   -1.31430971265518    2.56547309083536
C         0.96383678601209   -1.12394107232464    2.00043127180285
C        -0.14674332532119   -1.87198396516078    2.72564353314856
C         1.24216132787241   -1.67672598531838    0.41744236672590
C         2.36783245953916   -0.97534904264628   -0.45590677353600
C         3.56455617687297   -1.86343812964510   -0.75587232325298
N         4.21787153777259   -1.39180115797176   -1.86517098283699
N         4.04792653751701   -2.95558970716865   -0.24158721778410
C         0.64576530689888    0.47118352736707    2.22300019848669
N        -0.58386417685584    0.89375246542013    2.23217747647218
O         1.62194082999645    1.09009938062733    2.86963968313644
C         2.14147330555117    2.39232133968072    2.45953058681210
O         3.27825672171419    2.30499424199311    1.56535900255757
C         3.41979368662381    1.58663145961949    0.30368656249283
H         1.34071200944608    1.45555119165707   -1.10023897919569
H         0.88696294445776    2.02286543824865    0.41865175189191
H         0.24539880616349    0.46195229792919   -0.21511406535405
H         3.61487450028408    0.44258616877227    2.36862991392984
H         4.04906684914035   -0.93521058719807    1.28170636889962
H         2.41755566345269   -1.00205247971582    3.61180183464496
H         2.68881019599468   -2.35484752709224    2.48380694675071
H         0.20543511695155   -2.90009884911664    2.79223707582732
H        -1.14039393088663   -1.74300330480092    2.26245022932239
H        -0.26249824189130   -1.42084370041711    3.71725281196118
H         0.31750565099979   -1.57944459319454   -0.16183965169434
H         1.52621792315235   -2.72586336696538    0.60908741255673
H         1.94121984233521   -0.76990264550747   -1.45280761937149
H         4.12114867713644   -0.49327372312857   -2.29762762701512
H         5.06370713081041   -1.85129022056490   -2.18363045497062
H         3.37355996984863   -3.31082020948111    0.43307951455083
H        -1.27242163994767    0.24078734397564    1.85894310768379
H         2.56751574362989    2.73458473757767    3.40841426891516
H         1.32045454881374    3.04220912445011    2.14172746625029
H         4.49131390153249    1.39401247224566    0.21745579765229
H         3.30923662330980    2.35444378645794   -0.46988709352511
