38
 energy: -53.123241340713 gnorm: 0.152880971796 xtb: 6.4.1 (79825abcba525fcdf90b791dcacef51065a7a4e7)
C         1.06921050171217    1.09033427394740   -0.14303440389365
C         2.49153969535650    0.38158673633089    0.29007702026544
C         3.18769359388953   -0.32850508321516    1.69007874801766
C         2.37224943164983   -1.27744092965429    2.63485060102608
C         0.99523848030137   -1.17835991078128    2.02668936342475
C        -0.06531715854344   -2.06013629505968    2.67212044399183
C         1.14705905370230   -1.56472206040114    0.37848903153774
C         2.28982796799312   -0.90636372550971   -0.50607150364457
C         3.51361804909902   -1.77610495386465   -0.74422540434865
N         4.30668317799581   -1.29828261151600   -1.75543232326236
N         3.87129918385646   -2.86246429300878   -0.12550191489898
C         0.68198220022064    0.39978368391487    2.35297468229294
N        -0.50147138845805    0.93794258589166    2.33152793700943
O         1.68302797074857    1.08818666485791    2.88035193650889
C         2.23169649609887    2.31972722924242    2.31807428700328
O         3.34406292226613    2.32785265495206    1.38962381362880
C         3.48468743677816    1.51567760471129    0.18609085078230
H         1.18298488976727    1.22137928854962   -1.22381243587524
H         0.93974420039790    2.03398909510440    0.40968460002790
H         0.18455246589320    0.49351370563139    0.05116248606186
H         3.69384067954518    0.45514150475900    2.25969123910097
H         3.85658812718253   -0.98660215481301    1.11235252218653
H         2.26499516396757   -0.93890431578341    3.66965330929717
H         2.70234304084164   -2.32312630538199    2.67997302801943
H         0.42548728390222   -3.00910590300740    2.88200670348653
H        -1.01193331272736   -2.14743665816333    2.11103037523186
H        -0.36274771420137   -1.62124475375028    3.63083049983020
H         0.19090519189635   -1.47734818949514   -0.14891502362862
H         1.19769654637462   -2.66221090252268    0.27332587867406
H         1.75740558422645   -0.67157667730463   -1.44384508438855
H         4.24421104305352   -0.29855611959623   -1.77466250244593
H         5.21575189911068   -1.73578184830059   -1.85629345363096
H         3.24186932646267   -3.13183237460032    0.62775306713891
H        -1.10437023463299    0.18893671861539    1.99199602744198
H         2.66596645519351    2.85731607105987    3.16745315905522
H         1.43140234785398    2.94550881149011    1.91144000659309
H         4.52930244509793    1.24118628961188    0.34773059072711
H         3.25337522757579    2.02963312911966   -0.75333409857462
