38
 energy: -53.124533424313 gnorm: 0.160426452273 xtb: 6.4.1 (79825abcba525fcdf90b791dcacef51065a7a4e7)
C         1.08380385866744    1.21849049640644    0.04241159365495
C         2.47385910834660    0.38796585394684    0.34391471283135
C         3.26392656094965   -0.27997742928038    1.71450242446840
C         2.41454375242236   -1.38050189286017    2.43935897974179
C         0.99916541693305   -1.12344528549947    1.98497770352628
C         0.08546554697838   -2.13812273327252    2.65912260150549
C         1.02831462399225   -1.51083623231603    0.33029703879880
C         2.23675912200735   -0.87568477561333   -0.48090475583472
C         3.35262065487371   -1.83939599684020   -0.85096280329909
N         4.54580057075517   -1.22213892690252   -1.12504546789942
N         3.32650589949763   -3.13514859474247   -0.74478188474469
C         0.66634746589907    0.42539582973734    2.41561927155697
N        -0.50823471568098    0.94284551045632    2.62356120617339
O         1.72113331074745    1.15822081486481    2.73890303437573
C         2.25615274912254    2.41685586979002    2.22560249848388
O         3.42721064294767    2.35705806402967    1.37443095594511
C         3.51826358099095    1.47270608105541    0.21791632477965
H         1.20906437040527    1.42034054168015   -1.02612241389412
H         0.87575185711616    2.05960462805270    0.72210683504233
H         0.30251924388186    0.47721093048523    0.17135353898899
H         3.62433972198224    0.50453826488574    2.38486256219944
H         4.13347400567849   -0.74823011948467    1.22572241691651
H         2.56052648510569   -1.41761416529599    3.52298201047578
H         2.75177752328777   -2.34968240553566    2.05023400064489
H         0.43589982986351   -3.11101651737395    2.31830291550503
H        -0.93427021143126   -2.01439614079116    2.25494902578315
H         0.00184305267478   -2.21304190706868    3.74889783989485
H         0.07905618280679   -1.37551285736470   -0.19943442061511
H         1.30053275532733   -2.57208694340800    0.46352405508181
H         1.82971252800507   -0.56441884524775   -1.45837314053802
H         4.62879660942385   -0.23505801910287   -1.27507397729038
H         5.26654357756030   -1.82407915492377   -1.50738297038832
H         2.42386372298738   -3.53581137810296   -0.49812299119731
H        -1.34054344136356    0.38648614664657    2.42989875066761
H         2.69057258065843    2.99083063906431    3.05075036075743
H         1.46771429674918    3.06313183415651    1.82796330653613
H         4.57252258289434    1.18989476592887    0.25325916636963
H         3.28958433899716    2.13155506948215   -0.62694974067401
