38
 energy: -53.130786175345 gnorm: 0.139388530667 xtb: 6.4.1 (79825abcba525fcdf90b791dcacef51065a7a4e7)
C         1.12301163472483    1.06515295748378   -0.13883195188107
C         2.49977890959451    0.29946388388655    0.34196011536116
C         3.19718383583213   -0.39702637464477    1.74815823572691
C         2.31866299785424   -1.35908729911286    2.62031773136334
C         0.95458136325213   -1.09207873101203    2.03395266843107
C        -0.23134593545009   -1.91448246220496    2.51987207667677
C         1.18564562189789   -1.66055797129410    0.44891949328546
C         2.30662398703021   -0.98987073817464   -0.45406995425863
C         3.56960484234179   -1.78084770779504   -0.75417663003805
N         4.22286279417488   -1.27545004152795   -1.84854090488710
N         4.12851038225213   -2.81090791474419   -0.19067710041897
C         0.60570369718235    0.47738734412933    2.36590049901652
N        -0.60301179611839    0.93144245134272    2.51912630882218
O         1.61751448260399    1.20776377177681    2.80964281092804
C         2.25152657913064    2.41499817196198    2.28571608921273
O         3.41874766453724    2.19382340459373    1.45618488498220
C         3.45754274915542    1.45914763492022    0.19656525729716
H         1.32134667368840    1.15902579831649   -1.21123563693731
H         0.93080973889620    2.10031670483328    0.18402820545181
H         0.18011555304570    0.55185885663935    0.01609771641083
H         3.49740912359054    0.40416420027340    2.42838149046329
H         4.05391293326822   -0.89030033243449    1.26135715666243
H         2.39114216771700   -1.04947473442078    3.66712907100825
H         2.67388480457867   -2.38781099802990    2.47889375337677
H         0.08008394219754   -2.95173181877419    2.40757886255125
H        -1.18942775607238   -1.65802755338101    2.03527361829372
H        -0.33326945886345   -1.75419688605365    3.59882333514156
H         0.23197471713170   -1.51776847093745   -0.07083275409545
H         1.40532831184197   -2.74182105582576    0.42218286045207
H         1.78371343099806   -0.90856698517600   -1.42255954614550
H         4.29028250048818   -0.27883764184059   -1.92563779101416
H         5.14066476741076   -1.70622049070213   -1.85634176069519
H         3.56282369850124   -3.26162433456650    0.52555432789671
H        -1.32975149002178    0.22219157376112    2.42643692654909
H         2.64428415399279    2.86785894411596    3.20206494922133
H         1.50434700868274    3.15940124334505    1.99414877849005
H         4.50822621908028    1.16285512732440    0.22768431310707
H         3.34651755766104    2.04175301226210   -0.72453149169129
