38
 energy: -53.128918796285 gnorm: 0.145962170771 xtb: 6.4.1 (79825abcba525fcdf90b791dcacef51065a7a4e7)
C         1.14195703054157    1.13618326857344   -0.15164073086216
C         2.54315286450592    0.37008886300139    0.25169347335717
C         3.32727707923129   -0.34640563013921    1.60100823348421
C         2.46459018641521   -1.29753998193510    2.50052868223588
C         1.04491067564122   -1.12503378259072    2.02033290784823
C        -0.02290988286070   -2.02634626134653    2.62554709696191
C         1.06699740029492   -1.49043034652419    0.36054766417130
C         2.28499127792094   -0.93717733275162   -0.49514259904839
C         3.41583154221377   -1.93134861718581   -0.70407550773240
N         4.57967556684484   -1.30576573351176   -1.07002502141755
N         3.42484423711972   -3.23162628106264   -0.69276570201761
C         0.73697474819239    0.40404087481123    2.53242172450397
N        -0.46453952508213    0.90044713989536    2.50830485880716
O         1.76044623216517    1.15154678346600    2.91694623027347
C         2.04729775028781    2.44857511536722    2.30922986240006
O         3.15609736684690    2.44974398721431    1.37648798317588
C         3.48926204857982    1.54798119834358    0.27934610058578
H         1.16173840852859    1.08450481519026   -1.24486375988564
H         1.06152493242992    2.21598958023290    0.04909102738009
H         0.27181287163133    0.60372978598255    0.21696405756919
H         3.74012723260870    0.44379275688847    2.23337402630948
H         4.16813664743916   -0.87131099995029    1.11964686335369
H         2.60530358086184   -0.92502389450396    3.51952753488104
H         2.72053306647181   -2.36427636636195    2.46855283440659
H         0.40306124150334   -3.02356081414453    2.52758638794873
H        -0.95054971189370   -1.91440222079000    2.03777294666203
H        -0.28774099717001   -1.84271842433164    3.67261967566270
H         0.13717255208726   -1.18552979135398   -0.13187576003872
H         1.15430779670610   -2.59064946027631    0.36059667996777
H         2.09766431577174   -0.72179398126592   -1.56122723970558
H         4.56611231681668   -0.41199768674838   -1.52248533122862
H         5.27341468568683   -1.98971738315503   -1.35095324217875
H         2.56651700289018   -3.59873044299311   -0.28700337253047
H        -1.17528940241537    0.29531449821106    2.09790528353647
H         2.31345313180459    3.15082481002455    3.10612590577724
H         1.22118949156751    2.91158550345228    1.76096781326643
H         4.54090022060131    1.27378153747668    0.38688719792222
H         3.40732128414274    2.22057391411348   -0.58151369501185
