38
 energy: -53.134918058375 gnorm: 0.142171085381 xtb: 6.4.1 (79825abcba525fcdf90b791dcacef51065a7a4e7)
C         1.13402479492252    1.12706548495211   -0.09065299563444
C         2.53388817362743    0.35599389371849    0.30779402847779
C         3.29629324205021   -0.34845809521511    1.67576748744001
C         2.39611808853201   -1.32375556153329    2.51033433056811
C         0.96942326499164   -1.14348707097484    2.05439415676879
C        -0.04747037936444   -2.05871629582649    2.72310329751380
C         1.11394459620960   -1.56833570209002    0.41503245751651
C         2.27229844356295   -0.93422694147608   -0.46696883278984
C         3.49273046471917   -1.80908107384798   -0.70362297936593
N         4.33797819545458   -1.26708956953959   -1.63722214863960
N         3.92767857585111   -2.91045660018332   -0.16629323205128
C         0.62917553546955    0.43749739338411    2.33696877802885
N        -0.58420107401106    0.88279161507945    2.47862902168561
O         1.63490055530133    1.17471749782078    2.78322181389455
C         2.15560408636337    2.41896944125756    2.22233822029705
O         3.33868237481352    2.36468421239471    1.38757822493595
C         3.49663812704960    1.51664348084853    0.21123981473692
H         1.31984465159197    1.21892827215106   -1.16546961882645
H         0.89526640013559    2.14852290900617    0.24455349829327
H         0.24818233903417    0.50799378504334    0.00186963001733
H         3.65522176089654    0.36598109156350    2.42108097954571
H         4.22112758751067   -0.77926501400754    1.25939498308494
H         2.54762727883769   -1.04913016138905    3.55845312925330
H         2.61802511970268   -2.39689320734130    2.45042947847380
H         0.28685742193167   -3.05859104265817    2.99505910772841
H        -0.89297425327043   -2.17097040698031    2.02235528124989
H        -0.42184738057793   -1.53083619221461    3.60707170839077
H         0.12937186853181   -1.38583636934687   -0.02918593769946
H         1.18006268561863   -2.66982293444543    0.39359686201821
H         1.91582237534564   -0.80748007540008   -1.50373201222526
H         4.14545711243491   -0.59418374523767   -2.35406174034911
H         5.15513182445674   -1.83065103794404   -1.84372374539267
H         3.27796500865535   -3.38789815756402    0.45504082900335
H        -1.28504236442554    0.14857806885426    2.38100385292986
H         2.42067323826386    2.90663400983296    3.16624406505455
H         1.32057244948470    3.03071534833220    1.86749478980340
H         4.53134969158858    1.18394103296984    0.10458870843064
H         3.29772094133329    2.20761364686055   -0.61529937661118
