38
 energy: -53.124428722094 gnorm: 0.158072719577 xtb: 6.4.1 (79825abcba525fcdf90b791dcacef51065a7a4e7)
C         1.18688811574757    1.13628462872543    0.05177540961930
C         2.62758562098916    0.39653894905569    0.35193527473130
C         3.34425023750440   -0.35297956683431    1.72068627534756
C         2.41608835243544   -1.32731191077506    2.52518256690789
C         1.00219871943535   -1.14057177018745    2.03336903167622
C        -0.07268658550639   -1.97118893413332    2.72154479723261
C         1.26601728815428   -1.65089952384891    0.43372690312478
C         2.34244927535614   -0.87757841116451   -0.44095732153414
C         3.34944134824903   -1.90959392860145   -0.92235132442919
N         4.59264557037437   -1.38858731509646   -1.17295318835050
N         3.17099046396322   -3.13774076662576   -1.31060613267787
C         0.66807180701451    0.42664878428259    2.39017122520954
N        -0.43660678944765    1.11229574810582    2.40469102355969
O         1.72886373472196    1.07288514550130    2.84975490415218
C         2.12918464006505    2.40787354769743    2.41222246480967
O         3.28388912945842    2.38162459420088    1.53734308875555
C         3.47765637070789    1.64445434112063    0.29358690891343
H         1.37712905851298    1.38838347389461   -0.99629573294725
H         1.09956613791994    2.13677342542573    0.50359537523091
H         0.28646455590507    0.54669843821825    0.18650699660565
H         3.87146515288935    0.33380060898664    2.38786140898560
H         4.09687144852494   -0.95849158903587    1.19040734504195
H         2.36717121221853   -1.08575562905736    3.59110228532365
H         2.67014119397119   -2.38685977864689    2.39376259342496
H         0.28626787182086   -2.99872526164813    2.74992372876143
H        -0.95864600108137   -1.88813178019554    2.06831972058413
H        -0.26347536690179   -1.76557257188183    3.78057135372228
H         0.25330439183848   -1.74943433824293    0.02786617652546
H         1.58153004906170   -2.69150953739549    0.62263884289877
H         1.86974221715478   -0.63179650272113   -1.40747537532338
H         4.77089072779110   -0.40277449227253   -1.16166773184946
H         5.17907273227024   -1.98691951066077   -1.74399281794457
H         2.22558035035143   -3.45757215011532   -1.11050170416487
H        -1.26806627763391    0.57819922748361    2.15330536928806
H         2.44174175018113    2.85098137370312    3.36353741972933
H         1.30407275965407    2.92803863259607    1.91619481660605
H         4.54226210144249    1.51618147392648    0.08657458400425
H         3.03352169009108    2.20406247266991   -0.53692978670626
