38
 energy: -53.123351975228 gnorm: 0.149028382145 xtb: 6.4.1 (79825abcba525fcdf90b791dcacef51065a7a4e7)
C         1.10406449442411    1.18205378249704   -0.09937498576940
C         2.47597671907472    0.39788888152845    0.36524438956660
C         3.36779389890600   -0.37703394258892    1.61144750835651
C         2.46426577699404   -1.32510640651261    2.47331630007071
C         1.04251288962567   -1.10324690002073    2.02028938926490
C         0.02914825194828   -2.07725079387337    2.60620549243401
C         1.09495053594704   -1.55182481137118    0.38171753830313
C         2.24250151089119   -0.85949880438764   -0.47011302588731
C         3.37370311468477   -1.83157872116196   -0.76383536460829
N         4.42008141692075   -1.31322419257512   -1.48231079907446
N         3.39401693913722   -3.12696123594398   -0.65202010604842
C         0.74425825556504    0.45664232289407    2.43612421174771
N        -0.39780955342679    1.05923417005823    2.58844473993103
O         1.82482189919963    1.06428140755292    2.90225191863229
C         2.14657408970444    2.38869686186516    2.37662398503932
O         3.30483744878292    2.32752089762164    1.50821804320420
C         3.38303089817674    1.60052952897344    0.24597222754316
H         1.24846767619617    1.41364317674055   -1.15942811241863
H         0.86172135368907    2.09309447011652    0.46985159942639
H         0.26044422944414    0.50026806600666   -0.09976160086154
H         3.94378744446672    0.29053086554389    2.25746135947107
H         4.15073662476466   -0.90672967570533    1.04514162691248
H         2.70170280289601   -0.95538924689878    3.47524446108920
H         2.66803252188905   -2.40061904385905    2.39452916543988
H         0.03448049184130   -3.08198231239768    2.18671687323283
H        -0.97670881819296   -1.67132921738081    2.40125476543923
H         0.35362588533439   -2.17167889749618    3.64832511014298
H         0.09802353808594   -1.42018085013048   -0.05282344486388
H         1.16596705948289   -2.65281466909923    0.35199896069502
H         1.76693955982560   -0.57025942688179   -1.42310791808643
H         4.65742890289006   -0.34326402510365   -1.40126104634979
H         5.06110280375620   -2.06348731906731   -1.71507960127151
H         2.59445162411426   -3.59210995843593   -0.22720703484530
H        -1.20566621280841    0.58058518459717    2.19090042597351
H         2.64691235918512    2.89019286982992    3.21160901892773
H         1.17129497230596    2.85037108007100    2.19465608775616
H         4.42859002209737    1.29250203751163    0.17801203488894
H         3.16092088512795    2.17711140282866   -0.65867982548517
