38
 energy: -53.123825237240 gnorm: 0.155416189574 xtb: 6.4.1 (79825abcba525fcdf90b791dcacef51065a7a4e7)
C         1.17761386198536    1.09475917437588   -0.05100954128516
C         2.59414030455225    0.34855487927430    0.33572147213109
C         3.22118829776755   -0.41967392494365    1.73768465742736
C         2.32920408404174   -1.35658167331256    2.62345567413770
C         0.96045164075544   -1.14398172602792    2.02583181042846
C        -0.09153597417732   -2.03996581045929    2.66569405658693
C         1.22037232233227   -1.61040295738930    0.41220794707073
C         2.35079258013926   -0.92678107324919   -0.46904964654413
C         3.60922061939280   -1.74214907628687   -0.71877572391645
N         4.32660352972008   -1.18292820595799   -1.74466055406884
N         3.86247622600451   -2.93144752833265   -0.25794826863319
C         0.59936782270964    0.42296402786185    2.35663120341496
N        -0.59237898288109    0.94103562631431    2.40111377839786
O         1.62491248681004    1.14040748328956    2.78981831360116
C         2.09861100057751    2.39216173287318    2.20449235404928
O         3.34267964168057    2.29355153992176    1.46827593499279
C         3.57058120457555    1.49964482714856    0.26591651935597
H         1.30735983313465    1.17905654739431   -1.13464162620549
H         1.06512941662789    2.12152524005371    0.33088433256284
H         0.23676197732674    0.61343653117679    0.19323070757118
H         3.65885146663959    0.22617422849983    2.50324089011190
H         4.17219232468924   -0.83144665603482    1.36309983873298
H         2.37578403298015   -1.01079564255757    3.66036911250240
H         2.58801605193423   -2.40958220375683    2.45415719497072
H         0.22287262124410   -3.07771647171937    2.56717829067337
H        -1.11452269140473   -1.83509496965551    2.30506727665495
H         0.01194328267610   -1.73456508138202    3.71270797003703
H         0.24781058115484   -1.39204046819210   -0.04217175775894
H         1.22830292049625   -2.70321876288392    0.56646719021458
H         1.89030892856116   -0.73461229394774   -1.45344987112908
H         3.81195766843596   -0.70255141195355   -2.45747426779116
H         5.17769335694665   -1.69380024844869   -1.95115595237342
H         3.23589783878000   -3.19186748021201    0.50081068419664
H        -1.35462101244310    0.35593648431245    2.05990300901178
H         2.34863710786893    3.12988278776771    2.97409693692528
H         1.24453093628755    2.79074730111927    1.64852334562536
H         4.63684515539479    1.26560454374572    0.23429814105109
H         3.30286290971608    2.14396732283122   -0.57868414668604
