38
 energy: -53.126569564538 gnorm: 0.152724588164 xtb: 6.4.1 (79825abcba525fcdf90b791dcacef51065a7a4e7)
C         1.29376677263681    1.16510421022217   -0.14842611655958
C         2.61297504090721    0.33677873178572    0.38682650158736
C         3.30966199013223   -0.35439523465190    1.79600048731338
C         2.31925693180030   -1.18868109521930    2.67979186269666
C         0.94535083344001   -1.11070737421529    2.06161840669329
C        -0.14333896492793   -2.01973432551218    2.61597719444276
C         1.26949014384637   -1.65477731951191    0.48433874065645
C         2.31070436462001   -0.90433024554466   -0.45081149956868
C         3.48003862879143   -1.78442713798169   -0.86180553380209
N         4.14400970201476   -1.39221622052059   -1.99543639620960
N         3.95002897474425   -2.86293428008447   -0.30785374142371
C         0.51104846797206    0.44925739141146    2.33184090048163
N        -0.73929934141517    0.79302226270500    2.42720037038136
O         1.46103549356215    1.22651606838787    2.82934633509926
C         2.15731321582935    2.38039642547996    2.26574815178540
O         3.40493280101504    2.27521662528798    1.53648280602700
C         3.57873224346114    1.49673273113887    0.31515085435670
H         1.55059206823801    1.49685952276773   -1.15945417800004
H         0.91323126715915    2.08956249672496    0.31343299878980
H         0.39004225632423    0.57368246748906   -0.04827928797566
H         3.79898640600410    0.43967323282514    2.36587952682179
H         3.97467869744144   -1.07038663065883    1.28669867106225
H         2.27035028821477   -0.83608660012752    3.71430257880799
H         2.73932765023618   -2.18894162045257    2.84554830752063
H         0.29410832281934   -3.00920149117247    2.73877443301100
H        -1.06421093206412   -2.17203805301923    2.02663522541894
H        -0.37678836077868   -1.76522746548415    3.65566143848908
H         0.32334006465869   -1.55885287797771   -0.05936887883154
H         1.67396222175865   -2.67381169184946    0.61113187714345
H         1.86173398458587   -0.64424539712868   -1.42487480230506
H         4.04941571709432   -0.47347516570313   -2.38362767628244
H         4.99284293231285   -1.93471729924231   -2.11015004263516
H         3.43986493056561   -3.14703638582101    0.52590450771271
H        -1.36502688328763    0.08034653580999    2.05258447652084
H         2.52028693090268    2.81085497837209    3.20489252171204
H         1.42026783381315    2.98874865415456    1.73274119332425
H         4.62631817890621    1.19545155934012    0.38213416876838
H         3.50005275033325    2.16924774758064   -0.54607381880228
