38
 energy: -53.130616536396 gnorm: 0.156944239658 xtb: 6.4.1 (79825abcba525fcdf90b791dcacef51065a7a4e7)
C         1.10040464503622    1.16395020227154    0.03363654890327
C         2.52407158165364    0.38563253225210    0.31704962593361
C         3.22591565190002   -0.44875757950394    1.64372725667907
C         2.35545703417586   -1.37760005410963    2.55891889721536
C         0.97359301638980   -1.15256208986309    1.99709502159635
C        -0.13768657448268   -1.93960024271531    2.67865043771592
C         1.12458129837643   -1.60536434698743    0.36581876225756
C         2.25838579572821   -0.88785386589399   -0.48357508949518
C         3.45089951915782   -1.76220600745164   -0.83606423866340
N         4.51662897641546   -1.22102447808492   -1.50774064340733
N         3.51778157777166   -3.06010560684536   -0.79230816310274
C         0.71623600832111    0.43024282461120    2.34869824994708
N        -0.46836446566461    0.96334710450182    2.29249396146186
O         1.76871139161875    1.05060044558270    2.86013747037617
C         2.26732233184447    2.38226476399380    2.52555899193279
O         3.38818751005685    2.25518149960407    1.61618751609901
C         3.44243185986342    1.58559651930407    0.32134827337400
H         1.22151351951539    1.31973624394534   -1.04305371006400
H         1.03631046611605    2.16472796254704    0.48869704162506
H         0.17997749286968    0.59299897565364    0.09156421960171
H         3.91324084851045    0.29492822684978    2.05514035453468
H         3.85714838792360   -1.12769675979846    1.04802089858813
H         2.51393066940796   -1.11038065158697    3.60792178592984
H         2.70769702034392   -2.41028303783138    2.44081477507676
H         0.08418912625550   -3.00446751879907    2.72674848193248
H        -1.09046978966865   -1.78256805404673    2.14379474625925
H        -0.17411649672246   -1.64981673336661    3.73454535513702
H         0.14679246136702   -1.40093182051969   -0.08379860722222
H         1.29168952388107   -2.69627864691067    0.37509468445051
H         1.83871321825640   -0.59333294932822   -1.46089295714152
H         4.57496519950721   -0.22526763194093   -1.60149994725860
H         5.23312884069136   -1.86754080420560   -1.81859281324172
H         2.74846849053782   -3.55230846902554   -0.34283303256404
H        -1.27431616012953    0.35891854070789    2.13473879125423
H         2.72834675502348    2.88149115508774    3.38420101448044
H         1.53269008412301    3.08558935231159    2.12173386005829
H         4.45331728594526    1.18726145355033    0.21119730149885
H         3.13763663542161    2.29647411423624   -0.45449176659694
