38
 energy: -53.128582984707 gnorm: 0.159459241103 xtb: 6.4.1 (79825abcba525fcdf90b791dcacef51065a7a4e7)
C         1.10769324412346    1.09590114791512   -0.02545125889092
C         2.48829975336909    0.30351130818394    0.39760064369858
C         3.31827460622851   -0.41417925678418    1.71855767320326
C         2.33963858590231   -1.27193959345212    2.59293803548746
C         0.97058973776504   -1.09910846846395    1.98328983166173
C        -0.03700286087471   -2.01202071450765    2.66902850232347
C         1.08968269270131   -1.70936425152256    0.40142565190242
C         2.27380786984872   -0.99446250546695   -0.37868131689847
C         3.51351203456662   -1.79865598942872   -0.73538238567059
N         4.38683688539829   -1.17253208423092   -1.58689778122333
N         3.93118229779560   -2.90762040192231   -0.19995672531221
C         0.61482584625257    0.47608449373231    2.27880288618043
N        -0.54498366548912    1.05777894909602    2.36312837221633
O         1.70726897585347    1.08863873680664    2.70945746892961
C         2.14273238958573    2.39594226308071    2.22446821240366
O         3.29304589577943    2.36618369634694    1.34393505301846
C         3.44078045841725    1.46137257706334    0.20930449632466
H         1.20305480003567    1.22134598785400   -1.10867253103002
H         0.93293133049734    2.05412220567787    0.48837255926088
H         0.18608865429929    0.53350992263271    0.07889503903237
H         3.79036085890366    0.39230974844786    2.28552794457422
H         4.00687296847856   -1.11343726448433    1.21740922288582
H         2.28801013881387   -0.95316364450280    3.63823395421673
H         2.70757814091063   -2.30329308127552    2.66632869378657
H         0.38807126397609   -3.00898198259402    2.56479423611628
H        -1.02508495082334   -2.10253065582624    2.18526482662515
H        -0.21057167255437   -1.79557364498261    3.72885878153186
H         0.20568031794052   -1.53753205987912   -0.22229939317262
H         1.29955855425276   -2.77768979653894    0.58236170850294
H         1.80785331659873   -0.77904492123257   -1.35566620288276
H         4.07424645813235   -0.42347114810778   -2.17419715524321
H         5.18876907453947   -1.72746808083761   -1.86426989523952
H         3.38790989350063   -3.40658085525753    0.50149015754727
H        -1.41278639783533    0.63650617560339    2.03263424484790
H         2.73695870917954    2.74581771935003    3.07506734336014
H         1.33901969696202    3.09229353863384    1.96646519617738
H         4.51538270635740    1.27222468762911    0.16297437594476
H         3.26889017554658    2.13422148243750   -0.63798703020405
