38
 energy: -53.122660876056 gnorm: 0.156670658116 xtb: 6.4.1 (79825abcba525fcdf90b791dcacef51065a7a4e7)
C         1.06904359856123    1.10206207404668   -0.02673600039098
C         2.50896022068876    0.37495075052930    0.30624765730715
C         3.28539240678255   -0.38939697331325    1.63357243955364
C         2.37469501457130   -1.24380656684710    2.58153697932012
C         0.97345113703896   -1.16114706550449    2.02879900301648
C        -0.14306611472256   -2.02967664541195    2.59265598798019
C         1.20670032787796   -1.64495575816124    0.41621924917403
C         2.33864411392001   -0.94240124761590   -0.44802853059684
C         3.54582541796520   -1.84503610790842   -0.64498742743118
N         4.30043881913194   -1.28558985765146   -1.64367877813452
N         3.84880204323210   -3.04454801404871   -0.24460325698739
C         0.63328092074269    0.40665729434861    2.37722757679120
N        -0.55689389059495    0.91029730997270    2.52029390442558
O         1.71982661417764    1.08281000454149    2.71833459777633
C         2.16433366923533    2.41219226581971    2.30718775453041
O         3.28080542992120    2.36446297150627    1.38487648225928
C         3.44070722705918    1.55784158486515    0.18001611919396
H         1.26784613589410    1.72864557980399   -0.90198980174184
H         0.74416451952930    1.91329842163300    0.64340831311541
H         0.22777722266704    0.48597378069964   -0.32545518048456
H         3.71827653328206    0.39221016765798    2.26321269033801
H         4.08098319772303   -0.95598154906314    1.12337988669030
H         2.46963595727978   -0.86054499120925    3.60184278196172
H         2.78421782488762   -2.25859563079701    2.49817061999334
H         0.00819277552479   -3.07113298238654    2.31341774396105
H        -1.10340596636786   -1.70143131239113    2.15845795298648
H        -0.23150727602691   -1.95669543998156    3.68218229927550
H         0.28630304173102   -1.58372031056623   -0.17466016127182
H         1.60748477847441   -2.66726673975065    0.52738260432518
H         1.89776626511500   -0.73768269828789   -1.43885387728079
H         4.03598561603395   -0.59242368730170   -2.31696235443250
H         5.23372189394674   -1.66989738233152   -1.73998513263029
H         3.35893450740976   -3.38407991808914    0.58055251702710
H        -1.42364554914790    0.38382417226384    2.41377491703490
H         2.60781659238237    2.94567346960945    3.15439335042313
H         1.46968059609034    3.16854310774505    1.92927870832311
H         4.49740680335618    1.28386659718215    0.21190811995053
H         3.36683919368254    2.21995054702606   -0.68965627290886
