38
 energy: -53.131753003265 gnorm: 0.147549127581 xtb: 6.4.1 (79825abcba525fcdf90b791dcacef51065a7a4e7)
C         1.19344877890492    1.19054916467044   -0.02144334227141
C         2.55738500821176    0.35100211400318    0.36296220370914
C         3.24435039170087   -0.36625560440167    1.76384956424287
C         2.38432124862565   -1.44946123963417    2.50211625265863
C         1.01089433440570   -1.10603859332280    1.98096781690479
C        -0.02425558106584   -2.06776190261911    2.54880766276476
C         1.07962085621840   -1.55123729387409    0.34207662315309
C         2.25519531489744   -0.88059586188177   -0.48862705486493
C         3.32157902640616   -1.87522160481098   -0.91801573861324
N         4.32774165939731   -1.23364052512401   -1.59315748971561
N         3.43711910649620   -3.13775582606635   -0.62889814104556
C         0.71312643070977    0.45107470271127    2.40741977789788
N        -0.45276462880622    1.02644694004699    2.39062148944739
O         1.77306654026315    1.07517418026790    2.89848482678154
C         2.22151752629469    2.38908773757905    2.44416295942720
O         3.33753446498390    2.31340083703019    1.52317269750988
C         3.49721385159982    1.53263068955084    0.30137254098161
H         1.24044256314911    1.25858987009896   -1.11293800939877
H         1.30890896271789    2.20997316844386    0.37879145209622
H         0.26387945155424    0.73719629362558    0.30551093939718
H         3.71151094633180    0.30595378143956    2.48817047992096
H         4.14889687919511   -0.80081938596289    1.30862521041072
H         2.51911444796497   -1.34872426425661    3.58313892210438
H         2.77144414376424   -2.43643421316643    2.21843343547848
H         0.33923963932872   -3.07451152678850    2.34928075588505
H        -1.02626909569009   -1.92513228617653    2.10818165590185
H        -0.04834180478503   -1.90872171177950    3.63247817106173
H         0.15991872872026   -1.30618532099075   -0.20024889784561
H         1.07242948679762   -2.65427781160166    0.37888842261937
H         1.77613994746110   -0.50630795297862   -1.40973093871966
H         4.37673649805308   -0.24516127639269   -1.74882988696250
H         5.24945674682247   -1.65604447889817   -1.59398379146811
H         2.67498819674878   -3.50236148786909   -0.06113642872213
H        -1.28790926260217    0.46933825223595    2.21189806736929
H         2.64299621097498    2.84474886539668    3.34625236019028
H         1.36470672402158    3.00105186037307    2.14616981688945
H         4.57120059353619    1.33823629799407    0.33953917848576
H         3.44703354506806    2.19314400086524   -0.57119776804019
