38
 energy: -53.128161041548 gnorm: 0.148690117016 xtb: 6.4.1 (79825abcba525fcdf90b791dcacef51065a7a4e7)
C         1.09233753475702    1.01037080854921   -0.06606800525035
C         2.51511476746585    0.30878663834962    0.37711764761478
C         3.25179457050468   -0.43453632679046    1.73860188422099
C         2.33540460372327   -1.22520723055966    2.73514151420988
C         0.97347830676216   -1.14666943111273    2.09107250617860
C        -0.19209822282730   -1.93015990894833    2.67968373756477
C         1.22906309065597   -1.84057922606699    0.56069504333345
C         2.23044114882204   -1.00610438810682   -0.34633173048725
C         3.44707566051691   -1.75580432942010   -0.86457850420557
N         4.35747459877553   -1.02725687724611   -1.58582624613639
N         3.81156516619322   -2.99625038837945   -0.72539464784832
C         0.67383039478814    0.45356815897537    2.30221134007510
N        -0.46652757975154    1.06135340915271    2.15792640079933
O         1.68714549314310    1.15405226745617    2.78866030564064
C         2.25281971342779    2.41473237217737    2.31475754796130
O         3.40535867613707    2.24548465089709    1.45309953673772
C         3.40519235080430    1.51548823382806    0.19016629707184
H         1.25571851016580    1.15312957151698   -1.13897301359745
H         0.86958020889148    2.00597162385211    0.34854317585269
H         0.27957182561859    0.29444845104067   -0.00780868898155
H         3.77426216138520    0.35625564502026    2.28304739671246
H         4.04405025455658   -1.14311452761920    1.44786644027658
H         2.43433567035236   -0.83898625658750    3.75395119412105
H         2.50822558162362   -2.30735256007270    2.79472452144462
H         0.12502417210741   -2.97076654634721    2.72502442619903
H        -1.09732409836382   -1.81111158683887    2.05926518407882
H        -0.36025807118238   -1.76651911571619    3.74980506130202
H         0.25487804680149   -1.82719665593943    0.05989183602477
H         1.66519824187265   -2.84624981353666    0.68921744555608
H         1.71293243885677   -0.79075194502501   -1.29702932738298
H         4.34256697726885   -0.02770926432308   -1.65221864533864
H         5.28912627831613   -1.42299778436059   -1.64412523732947
H         3.18564552403147   -3.60722581224621   -0.20475292063890
H        -1.28833993771356    0.49284275479053    1.95495153132311
H         2.65094557040906    2.88458114932635    3.22017157492514
H         1.53364607319599    3.11647269483437    1.88142794572181
H         4.46953772764851    1.28884168424299    0.09800523777134
H         3.05294842050919    2.13905930056522   -0.63884407081267
