38
 energy: -53.126600285226 gnorm: 0.158885769020 xtb: 6.4.1 (79825abcba525fcdf90b791dcacef51065a7a4e7)
C         1.12520953533211    1.16034376627763   -0.08896113853283
C         2.52095432920487    0.38700170550476    0.31941053370037
C         3.31083920554993   -0.34073588713701    1.65931551186881
C         2.49223107988207   -1.41253863431965    2.45877901028515
C         1.07840975834330   -1.12852267438686    2.01574345878190
C         0.07404388936066   -2.02265633551578    2.73035059174872
C         1.04927409851221   -1.51973436271974    0.36196170363941
C         2.27199736808295   -0.91033365995992   -0.44759522294225
C         3.39819779360462   -1.88433414586072   -0.75390371117078
N         4.47250053982876   -1.18882789912370   -1.24578843637092
N         3.25613203769703   -3.17445780212557   -0.83346143145249
C         0.73410432314262    0.40935752682056    2.47564244215403
N        -0.45882242023579    0.86751570857012    2.23552949797828
O         1.73901390711215    1.13186357254381    2.94708682004357
C         2.22514436995991    2.39178347951061    2.39016270589721
O         3.37328659153960    2.26133540370993    1.51597845159159
C         3.41971667755668    1.59747192528921    0.21789344712113
H         1.10616252556811    1.07099576631752   -1.17976483498658
H         1.03945385618609    2.21897385401212    0.20205868200881
H         0.18257050949793    0.79652644750763    0.30549504595639
H         3.60919046004612    0.46357017439084    2.33668064654371
H         4.18464555216121   -0.77649899545113    1.14857857624414
H         2.67342554461404   -1.12741069042156    3.49935470793801
H         2.86633856742457   -2.41385927893286    2.21006978095173
H         0.37699702795173   -3.06265919438990    2.62035962444399
H        -0.89037608212458   -1.93159828194084    2.20107927867127
H        -0.07501944917469   -1.73975772772483    3.77818845610663
H         0.01742871189229   -1.28543319817557    0.07838191409837
H         1.01465941518179   -2.60452855458471    0.56228294108609
H         1.87214115394811   -0.66761036364382   -1.44720427510908
H         4.58236289465140   -0.21682585478626   -1.02929846865866
H         5.29267977122033   -1.75088153670748   -1.44424806604316
H         2.30514843079192   -3.52020780213813   -0.72291148537915
H        -1.16808302931771    0.19609432708419    1.94240592144815
H         2.71117717095714    2.98584405589774    3.17112414701375
H         1.37627350320665    2.90652034558491    1.92984872773680
H         4.47520366368540    1.36134227933278    0.06662083330579
H         3.12758217694918    2.27229990870002   -0.59416533834573
