38
 energy: -53.117083010590 gnorm: 0.158984143978 xtb: 6.4.1 (79825abcba525fcdf90b791dcacef51065a7a4e7)
C         1.05836462173107    1.11553794676455   -0.04165870998929
C         2.50623596490264    0.44271912803729    0.36320211141833
C         3.28432784373873   -0.33184766817902    1.68361293633383
C         2.43818244427648   -1.35925722621523    2.51215974256091
C         1.03840560204848   -1.12286147739278    2.00169125197870
C         0.04112574726607   -2.05961622164234    2.67013162954839
C         1.04692858348419   -1.49917440496975    0.34422166008021
C         2.27527047117377   -0.84687920734207   -0.42225794358980
C         3.43793589666228   -1.79589531841538   -0.66393278486096
N         4.39770418049007   -1.29527864449847   -1.50538016463611
N         3.52623061281884   -3.08891109522589   -0.55788852922699
C         0.65770910034211    0.43652731082830    2.34593756536638
N        -0.53957914017557    0.91541016516854    2.51269906858518
O         1.70304417585474    1.09910953274979    2.81750665979269
C         2.27166123883133    2.35830682219905    2.34318370452151
O         3.38952681422104    2.31473019132804    1.42235636494209
C         3.44402199110820    1.60777987191370    0.14754395993172
H         1.11770782525727    1.34047038585062   -1.11127655532490
H         0.97267973952340    2.09214335043329    0.45998281746392
H         0.18682198343801    0.54922565952710    0.26855230720552
H         3.78441255368156    0.40600566731475    2.31625261323564
H         4.07814412423729   -0.79238800003187    1.07366412970834
H         2.53462927315361   -1.00719537825200    3.54350721687322
H         2.83589349102375   -2.38148095423404    2.54876948273959
H        -0.54980039058147   -2.59237660333009    1.92685696769188
H        -0.67099235538312   -1.58101387952337    3.36464812230709
H         0.45345757743154   -2.84598204381984    3.31186905986428
H         0.12853301078556   -1.13875786506772   -0.13187592915110
H         1.17783616297074   -2.59470534711653    0.37215660780515
H         1.99930363116563   -0.77844607404019   -1.48864297893053
H         4.29165691780169   -0.36064299930716   -1.85025087032924
H         4.92445289153635   -2.06065107385584   -1.91124384756204
H         2.98427100084299   -3.58122877070195    0.14924459181635
H        -1.29513236643188    0.31603196491012    2.18154381608901
H         2.75458875622211    2.63522671547165    3.28612220332473
H         1.57904637313794    3.13681967745782    2.00907725562998
H         4.43986529299888    1.20501999645903   -0.04936715996171
H         3.23079622811791    2.37645333866776   -0.60335597208032
