38
 energy: -53.122606686064 gnorm: 0.154902935981 xtb: 6.4.1 (79825abcba525fcdf90b791dcacef51065a7a4e7)
C         1.11517197895316    1.17216200602257   -0.04400295725237
C         2.50470208728110    0.38007312679301    0.34935463539613
C         3.22515399570605   -0.47590165262279    1.65209087424599
C         2.35816021982618   -1.38866542700365    2.58654599026830
C         0.97330317880645   -1.12082570287358    2.05150472340305
C        -0.12899293165241   -1.96533839560477    2.67650932363400
C         1.07677841159822   -1.66717795478997    0.44536598401585
C         2.18118489862334   -0.90753822250846   -0.40612542615695
C         3.39808844565434   -1.74048454275556   -0.77514497302469
N         4.25988379433548   -1.05852596592909   -1.59492982212926
N         3.71646584540529   -2.99737308876099   -0.67615925768747
C         0.73575915058580    0.46367448148334    2.40936059526533
N        -0.44579047332683    1.00641543975100    2.41253878194900
O         1.84642122917667    1.00697070555579    2.88409950830531
C         2.34735155078998    2.27858335835255    2.36839072381980
O         3.35410731902234    2.36140741136378    1.32962781977185
C         3.52423506992916    1.48214679058143    0.17817114733050
H         1.21831317967989    1.43020169456280   -1.10276448413759
H         0.88838753712115    2.07197096333566    0.54900370047789
H         0.23240620329253    0.57190365034585    0.14819890251579
H         3.79869105206155    0.18568698031847    2.30638512247024
H         3.96884689527039   -1.02703501103886    1.05421786895272
H         2.49439602740787   -1.00675466737501    3.60267154180932
H         2.77731526419958   -2.39123788556056    2.43287997529802
H         0.05698147284777   -3.02391208775576    2.50238344298475
H        -1.07641810047748   -1.68225074251211    2.18582357630849
H        -0.26285886993022   -1.76461851374101    3.74515666015027
H         0.15089734521594   -1.54397650373731   -0.12698451188353
H         1.35109196551169   -2.73254107454989    0.53401532210858
H         1.59014147521929   -0.56347741212225   -1.27232845005341
H         4.33441597217649   -0.06272601548759   -1.51397901460113
H         5.14673552139848   -1.53341718544279   -1.72125019114540
H         3.05085987128124   -3.67571648357445   -0.31153192069305
H        -1.14950790664613    0.29017806392260    2.23487472717743
H         2.69087166307173    2.70974664245143    3.31450318254873
H         1.46835636969990    2.85430100882425    2.06287245443755
H         4.52694239859650    1.05165881259026    0.22234709661057
H         3.32586326118666    2.20320629492010   -0.62238907331268
