38
 energy: -53.125835197790 gnorm: 0.156471815850 xtb: 6.4.1 (79825abcba525fcdf90b791dcacef51065a7a4e7)
C         1.11361422093811    1.08811359909294   -0.19527320302843
C         2.47692633342447    0.34469090027412    0.35393685297677
C         3.27487785801067   -0.35579302118708    1.70355203009793
C         2.40116227884517   -1.28211618542810    2.61819336564747
C         1.02431795496693   -1.12133203786054    2.02297533691124
C        -0.01040087863392   -1.93610759366504    2.78742737311499
C         1.26485406647164   -1.72372538593810    0.45193929714407
C         2.30486012859761   -0.93896239596297   -0.45599148577596
C         3.47327060387005   -1.85183341904130   -0.79112237049934
N         4.56870553541683   -1.27790466723748   -1.38309705028463
N         3.60915991159518   -3.14106994097788   -0.68946384392668
C         0.67183661654445    0.46749814756978    2.23862419854196
N        -0.50496913566686    1.01205168921019    2.33468177157187
O         1.68291187952115    1.11449558313879    2.79830199985845
C         2.07848684489595    2.44732940235733    2.35001642750440
O         3.16687441950012    2.42787209356382    1.39373232474091
C         3.35816843021581    1.56614690032191    0.23238334528074
H         1.21961379582054    1.14345424284180   -1.28334492082312
H         0.89015308226053    2.08976915912691    0.20409567003794
H         0.25067163747472    0.43331227638415   -0.13966395147730
H         3.85152428196871    0.43935557120952    2.18309645844368
H         4.08783078035116   -0.97914680191945    1.29757561636899
H         2.43354052020624   -0.94608674938731    3.65884846543016
H         2.73090738623539   -2.32124786178696    2.49198217396337
H         0.21882782627650   -2.99194724778155    2.65273737495066
H        -0.98050120684709   -1.67794290405403    2.32831744560851
H        -0.03327736073805   -1.68417349081272    3.85336431983449
H         0.26735847742461   -1.84563281128488    0.01586524504731
H         1.59369374540304   -2.73482939670344    0.74797708303397
H         1.80749012188445   -0.75787273480525   -1.42441673716543
H         4.80450733524421   -0.34514620226211   -1.10366051450813
H         5.29984587450459   -1.87376773080907   -1.75507218735749
H         2.78863280118855   -3.58274921216767   -0.27984345737067
H        -1.26399087998859    0.38474818793522    2.06981381979516
H         2.36482528526268    2.97610370138058    3.26513645895688
H         1.15110806365666    2.92935019494911    2.02590331500328
H         4.44756483772610    1.56917774692139    0.30919267945191
H         3.19334029591537    2.11204511545180   -0.70303189738436
