38
 energy: -53.128158370380 gnorm: 0.146618934571 xtb: 6.4.1 (79825abcba525fcdf90b791dcacef51065a7a4e7)
C         1.18109632223813    1.03739920235451   -0.04893152048327
C         2.61274362817640    0.35645105942245    0.39786209966354
C         3.31701308063246   -0.38209078140879    1.77895803087194
C         2.43531090423758   -1.35259077972351    2.63846563053968
C         1.03978305738316   -1.12028777482416    2.11465873344259
C        -0.08813338241432   -1.93861317883527    2.72869230025221
C         1.19570006977146   -1.64916801784985    0.50690714475612
C         2.33441758234420   -0.94687776748183   -0.34861296277212
C         3.37150103739237   -1.87500891516461   -0.96005363213624
N         4.51043889727456   -1.21692844669511   -1.34677904350027
N         3.16915821251257   -3.10017997869156   -1.34598678158528
C         0.70896227809419    0.46080670351043    2.40762075115329
N        -0.44421006746474    1.04977709774420    2.28953260608051
O         1.81054632282598    1.05487909638348    2.84087436712654
C         2.11654018307742    2.40545446420038    2.37590185628374
O         3.28399609275802    2.35856420627618    1.51899264764482
C         3.47559804597358    1.59245307851626    0.29251085544257
H         1.29476379891683    1.28253278720935   -1.10968021436047
H         0.86193331080601    2.01152476704090    0.35350927705182
H         0.34407241935776    0.35693711504947    0.06459997533363
H         3.73115217983568    0.37412854001380    2.45079609526535
H         4.17409798868445   -0.88788544239137    1.30582331262259
H         2.63523394200440   -0.98145098521424    3.64802652522552
H         2.85606249647023   -2.36008901359145    2.52723999298414
H         0.13733057452258   -2.99244077476862    2.88392750463344
H        -1.00672525144628   -1.85964454348790    2.12166799301925
H        -0.31181931172798   -1.64532428199785    3.76027454479256
H         0.19920779695933   -1.47226541102304    0.08770783517929
H         1.41201770985582   -2.71770833271577    0.67876024564451
H         1.86099894833551   -0.55749173425630   -1.26636629497504
H         4.81487997373011   -0.32955533159167   -0.99519662747939
H         5.20252219736232   -1.69162717284956   -1.91569582565288
H         2.30164280660372   -3.56699025796903   -1.08978500060606
H        -1.13661168000359    0.36567662876658    1.98561603654868
H         2.42488721092566    2.97387781353028    3.25956109039454
H         1.26329962257362    2.91534084437005    1.91827626246210
H         4.52423453427602    1.28741900952419    0.29553278589116
H         3.28711714983493    2.20693879237779   -0.59465153195991
