38
 energy: -53.126465828450 gnorm: 0.149307563432 xtb: 6.4.1 (79825abcba525fcdf90b791dcacef51065a7a4e7)
C         1.23412731908406    1.13563601556091    0.04761684520999
C         2.62384557543455    0.31093564790236    0.36617823372156
C         3.32801303960672   -0.48855119138840    1.71296493140337
C         2.34372034529689   -1.29199901194935    2.63147554305759
C         0.96826514664326   -1.08863853392366    2.04615187987924
C        -0.03277319540891   -1.95457615090524    2.79912159806612
C         1.19903587681661   -1.71175432691332    0.48174750010324
C         2.21512825993484   -0.91738059139513   -0.44471373262312
C         3.32827668503061   -1.80949487329263   -0.96993929493735
N         4.39249722086948   -1.03368019603849   -1.35119005533956
N         3.36196150502054   -3.08108731160979   -1.23984509325514
C         0.65447941368501    0.48852326653955    2.37664834930100
N        -0.56623507496574    0.93269879875501    2.43323063368240
O         1.72381257373375    1.14006902690273    2.80807939479797
C         2.23452739909843    2.39651399006386    2.26549126910634
O         3.41599155682402    2.28278002112565    1.43443628333265
C         3.57718994049441    1.47540012479288    0.23025692351155
H         1.28749203836094    1.27307406226065   -1.03703127609230
H         1.09293709560895    2.11645981762136    0.52802731736314
H         0.36835152779792    0.50932607309958    0.23388330732741
H         3.94226406489649    0.22311217101837    2.27061729683068
H         4.00990127790104   -1.23464125020002    1.27403751320958
H         2.31575520067899   -0.97167120249127    3.67719787503183
H         2.46241865971034   -2.38112750309027    2.56693430610873
H         0.03762417190679   -3.03905406220610    2.73251516881868
H        -1.06856465132681   -1.73605555744586    2.48621526763805
H        -0.01693664760531   -1.72905949761957    3.87108574205263
H         0.18792350160341   -1.76430416604125    0.06352543386759
H         1.61991727558075   -2.71541641592220    0.66512266053559
H         1.79913658460104   -0.53359888642774   -1.39217368137216
H         4.51835253756348   -0.04183162870357   -1.28698360791120
H         5.16180979388018   -1.54964901660184   -1.76340216895716
H         2.50466349607750   -3.55039954183585   -0.95538010523637
H        -1.34482271549542    0.29642328439580    2.26372116687909
H         2.70943046090233    2.99230756908215    3.05196041441057
H         1.36996540338440    3.01296093851437    2.00100978378335
H         4.61784956033100    1.16526123346832    0.34659612952643
H         3.35910321928700    2.16365799772382   -0.59370552455285
