38
 energy: -53.124504856886 gnorm: 0.157790121002 xtb: 6.4.1 (79825abcba525fcdf90b791dcacef51065a7a4e7)
C         1.10917115638105    1.08597512500837   -0.10432009498292
C         2.53085301359231    0.36010002247283    0.30170321358396
C         3.24354663373149   -0.27850949849673    1.72757527754828
C         2.34074418373991   -1.28999880234828    2.51488677793246
C         0.94567417461860   -1.08700307231525    1.97784981268191
C        -0.08856722770661   -1.92722728380005    2.71490960758364
C         1.17743094510079   -1.65300543969239    0.39203152588228
C         2.30665520529997   -0.94041761996927   -0.46754683428145
C         3.51072724025985   -1.79901387604782   -0.81947325158302
N         4.49565090794648   -1.28727997793780   -1.62437056210900
N         3.78532355611432   -3.02425301503231   -0.48136518734021
C         0.60558387199631    0.45871189585425    2.41400645901570
N        -0.63751748578403    0.83942988743302    2.43375924291967
O         1.65669744680400    1.12210143810816    2.87138225737380
C         2.21528446343780    2.35886814316698    2.33075842916949
O         3.35634559424127    2.29411444320817    1.44012280086596
C         3.42596945797421    1.57091817605673    0.17519796883648
H         1.13512690886892    1.20256084241787   -1.19240677584701
H         1.07107831013078    2.13668633424449    0.22324536188511
H         0.17601555410901    0.63080210355576    0.20963085466497
H         3.68997840297650    0.40862459533944    2.45096358245873
H         3.96670708062551   -0.96008509780580    1.25136848569002
H         2.36457638131141   -0.95268119469718    3.55535591353885
H         2.73087680924890   -2.31523333747512    2.48102809776821
H         0.07304082915324   -2.96643732324959    2.43311199696959
H        -1.11064933100520   -1.61247019832192    2.44141057892802
H         0.12366624621635   -1.85701927074818    3.78740365543305
H         0.15443323996163   -1.63676712822570    0.00058364867767
H         1.42296636526469   -2.72321029261899    0.50374154030087
H         1.94575697663702   -0.67415488813717   -1.47594876939357
H         4.49708196033793   -0.33057585136236   -1.92176050176827
H         5.25321020390782   -1.95532548059994   -1.71270858371240
H         3.16297064853943   -3.34413047006556    0.25788405831736
H        -1.36372584312188    0.15643486078196    2.21947455890520
H         2.55347934986190    2.95453461100711    3.18506651360082
H         1.43515556760074    2.99789153546897    1.90593757842072
H         4.44077156925569    1.16864744572732    0.20757599758927
H         3.17823009884411    2.27462564683425   -0.62704628720112
