38
 energy: -53.131160312518 gnorm: 0.155173576712 xtb: 6.4.1 (79825abcba525fcdf90b791dcacef51065a7a4e7)
C         1.16432442583836    1.14453415287951    0.04728033784185
C         2.56881984632519    0.32212612467026    0.30019645674189
C         3.33185493412964   -0.32856691001813    1.69419843164617
C         2.38167391922264   -1.34259992733151    2.42008778062678
C         0.97793356237136   -1.10482771821845    1.92127551842770
C        -0.02167783332300   -2.04587447612774    2.58013605005875
C         1.05223811569437   -1.58544890502891    0.29266517627724
C         2.21058483015092   -0.89699144858465   -0.54761040970643
C         3.40638305595478   -1.80735340592881   -0.77594561882662
N         4.20861338869536   -1.33779546370813   -1.78378874245657
N         3.77464948600700   -2.95010230652584   -0.27650998523137
C         0.64879733031039    0.43308738869567    2.39203580229003
N        -0.51025157475946    0.99167542279656    2.57971206389088
O         1.72206375389312    1.07809387904975    2.82352608573100
C         2.22860979307725    2.36379566880340    2.34995720836844
O         3.40261530215995    2.28712265774356    1.50421630035936
C         3.48935504680155    1.51995758032161    0.26654545853077
H         1.05665650870568    1.29479665869066   -1.03162065770323
H         1.17055035817262    2.12990938878181    0.53895210229266
H         0.25321032798093    0.61414583460155    0.30240069080716
H         3.72032748376511    0.45144422291626    2.35405973763425
H         4.21703892644143   -0.85576599465460    1.30331525503581
H         2.40188454025706   -1.13101785984633    3.49328474327311
H         2.65779005742252   -2.40393063890812    2.37774722711112
H         0.08947725218029   -3.04213006738527    2.15516087043288
H        -1.04382546190955   -1.73337661454545    2.30430116998090
H         0.02257912944864   -2.06215024002420    3.67466430856775
H         0.08544300066074   -1.39980003020010   -0.18781493296852
H         1.33750273259978   -2.64816920371657    0.37842577021144
H         1.74242508870772   -0.60631635515579   -1.50382810908043
H         4.17763955474039   -0.38474521768589   -2.09113459104928
H         5.02073246633757   -1.91816123997652   -1.96161636116727
H         3.22162079972764   -3.38269776441547    0.46048025499101
H        -1.39351270435033    0.51723513022865    2.39387641800215
H         2.78094531074162    2.71663154880291    3.22715100190466
H         1.42710531020469    3.09985274865641    2.23491251637279
H         4.56650253621804    1.34060928769100    0.24978630465304
H         3.19118957333289    2.15764858704284   -0.57287242410021
