38
 energy: -53.131916984174 gnorm: 0.162576092543 xtb: 6.4.1 (79825abcba525fcdf90b791dcacef51065a7a4e7)
C         1.17604426180869    1.09512053606899   -0.05028085114360
C         2.58737907202009    0.33294987164060    0.32409708707951
C         3.31174248575061   -0.31302471853708    1.74074098579293
C         2.45606670622561   -1.28703010662590    2.62230478247391
C         1.06590422988958   -1.12911356328098    2.05808236190017
C         0.09531103862830   -2.06802829614301    2.76184164182064
C         1.16907142159117   -1.64573649347018    0.44211613879031
C         2.27686733461538   -0.94443868024051   -0.45386010704383
C         3.42990252433976   -1.89677762617708   -0.72660473598505
N         4.50949460146649   -1.22609525808183   -1.24087317982160
N         3.52074488836792   -3.19238763000221   -0.66278036328930
C         0.60387403760787    0.42667169423324    2.30544672617700
N        -0.61031634652672    0.88467292494603    2.22412067543162
O         1.56936104090593    1.22871792198894    2.72814608284365
C         2.05295672405763    2.51513533505570    2.23301891255063
O         3.25073379709603    2.34879644067412    1.43482919517815
C         3.43988010054461    1.57556510206282    0.21244131881489
H         1.37767467275589    1.20803146508887   -1.12023172115548
H         1.02055222356073    2.13238690229575    0.28534535206025
H         0.23198366989289    0.56595636182765    0.02225833691267
H         3.73752002909976    0.52403701571427    2.30001405825684
H         4.17988049110229   -0.72060752110974    1.19806990888128
H         2.52462690783627   -1.12625298719637    3.70229430430626
H         2.74728168570736   -2.31936316530102    2.39005916972793
H         0.51630869870211   -3.07174750246877    2.73367630357643
H        -0.90997775027127   -2.02376187125915    2.30801292738091
H         0.04805204308747   -1.77613961155602    3.81672707423673
H         0.17614839557640   -1.60725414551614   -0.01901552390063
H         1.48525677451817   -2.66270402338523    0.73178679285194
H         1.76857705214882   -0.85727271676226   -1.42959620063919
H         4.52851010210744   -0.24713532717669   -1.45300871125087
H         5.18368727440247   -1.76810292889293   -1.76971759276808
H         2.62244306369192   -3.48878091478317   -0.28682951939872
H        -1.39471372813262    0.24318893399183    2.11011302697428
H         2.47407540506353    3.08789088837584    3.06587349640113
H         1.30111577293347    3.12201503156350    1.71934882221001
H         4.51755342778548    1.41025684195823    0.27558220371603
H         3.29200006638239    2.14383005177008   -0.71242693204464
