38
 energy: -53.122984864491 gnorm: 0.155183452897 xtb: 6.4.1 (79825abcba525fcdf90b791dcacef51065a7a4e7)
C         1.17716164798148    1.14767945562249   -0.02861075781433
C         2.55044857930323    0.30696970923666    0.31811542474517
C         3.34102304329803   -0.45366078505223    1.63921298023602
C         2.42456275741317   -1.42566503926749    2.45978019102985
C         1.01351249375818   -1.13513244696200    2.01215954167466
C        -0.05693436153128   -1.95150792271366    2.72389246137578
C         1.12319074832897   -1.59341172043202    0.37911321214250
C         2.28868108320684   -0.96004969289603   -0.49397822095396
C         3.50683430527896   -1.83704341848872   -0.73442359514018
N         4.24731707758110   -1.29230478231402   -1.75165071200160
N         3.82808238155841   -3.04064299501770   -0.36149076897942
C         0.65677023764052    0.42639203380059    2.37202762137987
N        -0.49645203391448    1.02309363249674    2.44031330180105
O         1.66432643194594    1.08121479709074    2.92894388585521
C         2.16330546023389    2.34793288418476    2.39948124433471
O         3.25794398220225    2.30921910736392    1.45094915708185
C         3.40695239007294    1.54763223236936    0.21576614168729
H         1.17145273041114    1.09324654764631   -1.12186417305935
H         1.21322033132418    2.22731424341570    0.18547506027304
H         0.23030748852856    0.70036163794549    0.25405694923515
H         3.74290065807077    0.38052300295830    2.22005463730313
H         4.19878898818882   -0.84474241549213    1.06862383214526
H         2.56368441815383   -1.20248513744227    3.52174207758529
H         2.53648894802220   -2.48348234642198    2.18968612020454
H        -0.98459594349999   -1.40157585949489    2.87390336939193
H         0.34294841543469   -2.04527384947926    3.74850326036562
H        -0.25765998481133   -2.92081027445544    2.25444825808963
H         0.19994739978661   -1.21718161500495   -0.07486043465112
H         1.16690328643142   -2.69540998475815    0.33675480506929
H         1.74097909063127   -0.71261560502697   -1.41962218281438
H         4.26489079838978   -0.29431394688652   -1.66544698207984
H         5.18022812910100   -1.64567757440155   -1.93272840014321
H         3.22112840696168   -3.43683453972093    0.35319329186203
H        -1.31615940003311    0.56547457189803    2.04226388768330
H         2.62333917297269    2.91307604187594    3.21680542951562
H         1.37510199958150    2.96168927086408    1.95286826683369
H         4.48666080433417    1.38460196964944    0.19721157703286
H         2.97112312591682    2.13078052757106   -0.60287039065804
