38
 energy: -53.129374463135 gnorm: 0.145096324003 xtb: 6.4.1 (79825abcba525fcdf90b791dcacef51065a7a4e7)
C         1.17307075900777    1.12272213832784   -0.14457557791393
C         2.56638903658896    0.40355149846992    0.35979200173446
C         3.24348017859406   -0.34118604173010    1.75111476683530
C         2.36279658067722   -1.34080687795760    2.57765989398876
C         0.99074920302509   -1.16267409831664    1.97633553100702
C        -0.06689155296710   -2.05957877336069    2.60549939835762
C         1.14579478427475   -1.59341019453131    0.33947365007875
C         2.35831199259028   -0.89724947451152   -0.41349784772369
C         3.51115153990486   -1.84002119284657   -0.71841042529897
N         4.35005790154884   -1.27913585822135   -1.64655355248712
N         3.74473144247435   -3.03405913102609   -0.25944966734156
C         0.62373957874560    0.39158926477842    2.35672758913037
N        -0.53484001117180    0.95411175682070    2.53533083386951
O         1.68838452725454    1.11483607382281    2.66907874186758
C         2.11566600654086    2.43619944893592    2.21596194332627
O         3.38696495225320    2.36575149699432    1.52438298983403
C         3.51543016767269    1.57805258350665    0.30334971737624
H         1.16757916464134    1.08179472367713   -1.23841895980442
H         0.99365578825628    2.20235284930560   -0.02229709905965
H         0.28946393944491    0.59749610474167    0.20169550176429
H         3.77249324892759    0.26356425825101    2.49217311250093
H         4.01201299858247   -0.91737863955633    1.21107899617332
H         2.32264041407835   -1.15267988288437    3.65465704811657
H         2.78703265477596   -2.34207651341446    2.42954306453428
H         0.30813794829217   -3.08048355446821    2.65639988886128
H        -0.99934144396523   -2.03784832894430    2.01508382036093
H        -0.23207070380859   -1.82213198318568    3.66216895827170
H         0.13880830659701   -1.39489937567844   -0.04339854635715
H         1.43182789024964   -2.64187800517688    0.53184185105819
H         1.94126963980678   -0.74815182777812   -1.42437044516940
H         4.10047719970269   -0.35138537195511   -1.93065586944771
H         4.85958517014856   -1.88898346144134   -2.27619817267509
H         3.19969580446290   -3.21873369240836    0.58017264999501
H        -1.31881431012645    0.33461240552785    2.33190132583294
H         2.35650148309919    2.93902281285019    3.15840746737616
H         1.28413032881527    2.95044236153801    1.72450758155921
H         4.58645345423075    1.37669039023321    0.23224580324919
H         3.29198171094944    2.28719987012587   -0.50123449259581
