38
 energy: -53.126295329899 gnorm: 0.154270534489 xtb: 6.4.1 (79825abcba525fcdf90b791dcacef51065a7a4e7)
C         1.22035539138503    1.12580484223885   -0.18770473101912
C         2.57864202213951    0.33918246533798    0.31150621585976
C         3.24398288584021   -0.33348063709937    1.74458379750850
C         2.36115389836232   -1.31909714958641    2.58553286866197
C         0.95502660599816   -1.16312987089021    2.06178050662468
C        -0.12740150013425   -2.05999409470312    2.64733417810044
C         1.13614130859589   -1.60105358368029    0.42950913443838
C         2.24622005589479   -0.92327870772997   -0.48161666403977
C         3.50098081930260   -1.73988934633940   -0.74534332312135
N         4.36570675985494   -1.13677579409443   -1.62187570327840
N         3.78346203175289   -2.97100554610887   -0.43633129066557
C         0.61376644648151    0.40579179107157    2.40405981825656
N        -0.58854472837326    0.89135399038938    2.50057169963552
O         1.63069155626383    1.14312612392503    2.82396392659966
C         2.18190166197036    2.37982721270452    2.27567267481586
O         3.30530569908430    2.34471408261582    1.36124618703636
C         3.58389157047581    1.46454558766025    0.23182665163985
H         0.96653907536123    0.82296483434611   -1.20851997538661
H         1.37272029673735    2.21638735584812   -0.17509687086968
H         0.25851323020675    0.98582813121526    0.29374436638964
H         3.61767480880057    0.35601867936609    2.50595773574586
H         4.04448009308520   -0.93993874115388    1.29105096944496
H         2.35847214478643   -1.05437424752403    3.64706089529151
H         2.67563537447620   -2.36962802675197    2.54146468390138
H         0.33820324535341   -3.02136242294560    2.85820788772654
H        -1.02673745172477   -2.17334733705743    2.01735683482957
H        -0.48534216388596   -1.48667248187825    3.50953862489992
H         0.12455356160770   -1.66712575608778    0.01436562872553
H         1.42891486170770   -2.65101680470570    0.60261632980359
H         1.74392817070261   -0.80092553272879   -1.45668097438601
H         4.35793114156135   -0.13606448094226   -1.66922575828998
H         5.23535877570241   -1.56366918325306   -1.92096079482116
H         3.18010284212017   -3.43586992831086    0.23894122328347
H        -1.34162428215500    0.26768695545969    2.21128062109634
H         2.56398052118847    2.86902759491327    3.17774548720578
H         1.34580091831555    2.86463202528606    1.76252105048334
H         4.61039827880473    1.11658000258287    0.36560754127085
H         3.61424489922366    2.07507703984967   -0.67729647873628
