38
 energy: -53.127509892607 gnorm: 0.163277914621 xtb: 6.4.1 (79825abcba525fcdf90b791dcacef51065a7a4e7)
C         1.09272253076885    1.03023075020401   -0.10144509367029
C         2.51571760405396    0.33807080824909    0.35564190610043
C         3.23216482926454   -0.35332472267633    1.75476343053740
C         2.36832950395392   -1.33990476555265    2.61410656079023
C         0.99062943227073   -1.12255487480919    2.03918236627070
C        -0.05071258939652   -1.95265239872593    2.77771742343514
C         1.23700213732598   -1.64774246693847    0.44156913912024
C         2.29174471698628   -0.91336555272457   -0.49117545141972
C         3.49624178573039   -1.80608774293906   -0.74229918698106
N         4.32632760618737   -1.25913629604504   -1.68654891541223
N         3.77326840019502   -2.98906345050465   -0.27888157992898
C         0.68928169643411    0.48090237831054    2.22150953618987
N        -0.55363345991905    0.86252716855697    2.23422976347628
O         1.59873057509806    1.20026411796126    2.86146226524586
C         2.16053129002326    2.41563832487846    2.27739808398110
O         3.37060615423927    2.30498849333180    1.48814475745450
C         3.41545841358044    1.54680428629993    0.24273713873478
H         1.27596925954772    1.18800498706001   -1.16902482572882
H         0.75914793621429    1.96696432186198    0.37184386180760
H         0.26622001486834    0.32814847498161   -0.07905915886484
H         3.68096379748401    0.44752523141923    2.34802902600333
H         4.08677490505193   -0.83076738336720    1.24882928959927
H         2.38389613760279   -0.83375231208678    3.58389753642233
H         2.78764590836601   -2.35400450146437    2.59890133026305
H        -0.22616217251422   -2.93557803338390    2.34348339141219
H        -0.99808322763613   -1.39276081035857    2.69090813801574
H         0.25259407731362   -2.14976943485434    3.81181878651730
H         0.32987841827443   -1.64770823990212   -0.17255299191690
H         1.57466477792471   -2.67226451975462    0.67490091860514
H         1.83290156866872   -0.73306167376355   -1.47858180558521
H         4.12623382068940   -0.38733477798741   -2.13782510765978
H         5.17847286758639   -1.76915341049440   -1.89079259371258
H         3.15037125853904   -3.26302081423410    0.47813934925033
H        -1.09866944219603    0.11713122080649    1.80167990208060
H         2.58242762924721    2.96154575297495    3.12770696357569
H         1.38268845779834    2.97079722965291    1.74430909530224
H         4.46952587225061    1.26126274195961    0.25279785199130
H         3.27107195961883    2.22237146852307   -0.60751951285465
