38
 energy: -53.125191356914 gnorm: 0.147440399779 xtb: 6.4.1 (79825abcba525fcdf90b791dcacef51065a7a4e7)
C         1.16131850731913    1.14305667974351   -0.05246234000769
C         2.48059525501763    0.26971381910120    0.40547871873067
C         3.26054704032955   -0.45825483278736    1.75106496177368
C         2.32625820294737   -1.33192619552614    2.65761060192674
C         0.95599718659782   -1.10287500258181    2.06959990706483
C        -0.13598288322319   -1.88214283302116    2.79016240236860
C         1.15667733719530   -1.68870221595853    0.48674696191223
C         2.26010004524991   -0.99580391397842   -0.42108235026852
C         3.47855799523967   -1.75525843444898   -0.92050028195883
N         4.09119475634105   -0.96539632738987   -1.85890316210132
N         3.92309609461092   -2.96205629247659   -0.72826097111995
C         0.60992428850205    0.46996155197505    2.38826508165678
N        -0.54795959679977    1.06140913964010    2.37677635683183
O         1.69495438314149    1.06665264988777    2.85814536531409
C         2.29173415295006    2.31609929883284    2.39271820983324
O         3.35479240118432    2.22751941977773    1.41215401830013
C         3.56129250358349    1.31944207986979    0.28936801448183
H         1.46907715075868    1.28397586550321   -1.09343542583990
H         0.94945462304841    2.09320110396288    0.46240026557636
H         0.24672659009090    0.56357696660607   -0.11766930242521
H         3.83523668793421    0.20393352467874    2.40373917100333
H         3.95943179041673   -1.03418405111203    1.12325536958379
H         2.44381571636924   -1.07538324099283    3.71463146013974
H         2.69462388908909   -2.35121051717422    2.48492035255597
H        -0.22658574201649   -2.90371512768837    2.42455916973262
H        -1.11505794429597   -1.38857876497494    2.66236528728151
H         0.02150848850851   -1.75655559554166    3.86702822772101
H         0.22923990511513   -1.83422335167135   -0.07779074477985
H         1.50738385804507   -2.72320508933479    0.64458848667291
H         1.73764636913295   -0.82412666930834   -1.37794541623948
H         3.97002745807488    0.02891094349065   -1.87883188888526
H         4.97533535575756   -1.42486900117278   -2.04642584726518
H         3.38450565792583   -3.44832415227317   -0.01439958109515
H        -1.23325794089413    0.50285462027300    1.86868016275059
H         2.80405290680870    2.77633937397462    3.24403788714683
H         1.53321554832735    3.04783313029806    2.09837169327351
H         4.56879515237197    0.90219914854446    0.34886716240665
H         3.36693430742325    1.99995692298224   -0.54687315712260
