38
 energy: -53.114450537592 gnorm: 0.152767906107 xtb: 6.4.1 (79825abcba525fcdf90b791dcacef51065a7a4e7)
C         1.19118925278302    1.11085864319960   -0.24057502389401
C         2.55359995988593    0.38347912571513    0.33186275341645
C         3.27906995487991   -0.22864867957277    1.76289675397383
C         2.51980982135858   -1.26582060593136    2.66057193371913
C         1.10856027811933   -1.14208560087365    2.14201558821811
C         0.22342031249392   -2.11940786050845    2.90376201108987
C         1.10742442165188   -1.54986138430119    0.49198310358759
C         2.31232485285139   -0.95852129428002   -0.35674280932515
C         3.36345574007165   -1.96800514768000   -0.78905683071674
N         4.58606345940900   -1.36940046242430   -0.95248480181834
N         3.30136134898507   -3.20986083870990   -1.16967458369677
C         0.66082800176457    0.42768418201217    2.31662225035651
N        -0.53335752231627    0.86748528896981    2.04991398983780
O         1.55878569486344    1.28770363795117    2.77286406853446
C         2.04133815110858    2.55749385948063    2.23559188525416
O         3.25574775081674    2.45839670263791    1.45147808242504
C         3.44633933225408    1.60177826191962    0.28624212096879
H         1.28896130775094    0.96706497267886   -1.32129819243773
H         1.21290785380989    2.19986088605020   -0.07825848945616
H         0.19862491842024    0.72506225929367   -0.03440943243358
H         3.66239242315348    0.51233056048900    2.46912539085460
H         4.10094375728087   -0.80332857907031    1.30622870371103
H         2.41259377858154   -1.06329061784288    3.73034456833413
H         2.89470468708776   -2.28117423168703    2.47900489826515
H         0.68954400573224   -3.10265332456685    2.94173076982172
H        -0.78302238871488   -2.27552851448590    2.47805671194190
H         0.12144423560741   -1.84514667206046    3.95950695029919
H         0.18356748503532   -1.22332314918110    0.00220704735656
H         1.01785691870198   -2.64813786084661    0.42976055279822
H         1.84022787783461   -0.70976620932726   -1.32279829969375
H         4.75368552398666   -0.39499545505818   -0.79073394853206
H         5.31299445311861   -2.03090478399506   -1.20141822862876
H         2.38346881154925   -3.64079203671503   -1.25858893044717
H        -1.21739261679545    0.14808861875669    1.81679784300028
H         2.34580805925757    3.05487500664191    3.16238566077007
H         1.18128402337517    2.87599544469564    1.63869290443969
H         4.53368225942667    1.54823647758628    0.37291404138634
H         3.11966698989277    2.14140357931650   -0.60945009626557
