38
 energy: -53.130469477465 gnorm: 0.154679887633 xtb: 6.4.1 (79825abcba525fcdf90b791dcacef51065a7a4e7)
C         1.15183753407483    1.26729637811256   -0.03330208167710
C         2.51639782402776    0.42816334299907    0.34979043043223
C         3.27539964455500   -0.37294658502122    1.66546691164998
C         2.37137853509805   -1.40562463311399    2.42332187659986
C         0.94052745245691   -1.15408293653805    2.01683913108552
C        -0.09469759646302   -2.08954730313095    2.62684292005950
C         1.04125565860122   -1.44685976589443    0.34560453664934
C         2.24586943678276   -0.82468354324056   -0.48120027697634
C         3.43488400019904   -1.74707490558637   -0.69629972541188
N         4.17101797050606   -1.33714393988563   -1.77790469150671
N         3.73509545745104   -2.97521781251732   -0.39221218302646
C         0.67308225570585    0.40403170514557    2.45942311802316
N        -0.50400425081977    0.93728023594399    2.60347411841779
O         1.71399168710828    1.06515964530494    2.94267816309997
C         2.25867655683942    2.30244316837641    2.38920428502133
O         3.39171434254632    2.25837735825195    1.48713502725931
C         3.56297275792056    1.51306111977341    0.24493157327468
H         1.27713617020243    1.28269885503365   -1.12062060853690
H         1.11545254166499    2.28947079571735    0.37483984269284
H         0.25555073424702    0.68307590287204    0.14525735641405
H         3.65048375522026    0.47964082138848    2.23743881835920
H         4.09293582116773   -0.90193601681763    1.14963359069707
H         2.47647495779870   -1.36107155614705    3.51139214821723
H         2.75337816863313   -2.37548210398794    2.07994381853971
H         0.24334319254251   -3.11757163913368    2.50693070091086
H        -1.11552271274122   -1.86547786400442    2.27154793527309
H        -0.04219353526539   -1.92400748041219    3.70853399510111
H         0.07130023277438   -1.28590519237896   -0.13740635206766
H         1.25288467593259   -2.52979294997213    0.32164437796217
H         1.90138535813663   -0.44919763733410   -1.46015834192072
H         4.19922839431253   -0.38527882687610   -2.08916438384871
H         4.94999549599370   -1.95147924933751   -1.98711901516157
H         3.26767848996217   -3.48847315282617    0.35225037481370
H        -1.22922175628390    0.36384240446384    2.17334932914945
H         2.64582596063122    2.79901342662177    3.28506696687832
H         1.44470712639566    2.89816917097707    1.96495313051609
H         4.60410536200266    1.19521497845085    0.15712424409371
H         3.39662335154410    2.23385384769003   -0.56312818342974
