38
 energy: -53.128636271604 gnorm: 0.153823363555 xtb: 6.4.1 (79825abcba525fcdf90b791dcacef51065a7a4e7)
C         1.14131998481257    1.14532938881830    0.00603851599552
C         2.54430248802588    0.35492302924390    0.35219856166175
C         3.31090374576480   -0.37335773297050    1.70526733943927
C         2.39124076603503   -1.37624247160752    2.48402563373277
C         0.97122104077439   -1.18376185739897    2.01250522823628
C        -0.03638710181569   -2.08174125341312    2.71766334769143
C         1.06752194230328   -1.59352136326985    0.36577730599244
C         2.27111671118079   -0.92902347873960   -0.42895914736962
C         3.49287565908167   -1.78734356545778   -0.71430271774864
N         4.44691227775153   -1.18406698730148   -1.49255551424994
N         3.67801481830520   -2.99898412980286   -0.28004265470534
C         0.72276914717326    0.41762417012490    2.27511382831055
N        -0.50947718431944    0.83245678974308    2.26414802914513
O         1.68819182020463    1.16511093500502    2.78828111809534
C         2.16388897508094    2.45092364302529    2.28401594160221
O         3.26884172247465    2.43024028200871    1.34694764183120
C         3.50117563226425    1.51826306269219    0.23240124888773
H         1.17035436876672    1.06495582746212   -1.08524314210071
H         0.91361195635501    2.17668027670565    0.31782150010263
H         0.15756834925630    0.71662577575001    0.16406694973703
H         3.67058252098170    0.40026329054656    2.38855858552598
H         4.17279637064923   -0.96628369939338    1.35906056245511
H         2.48947177559447   -1.01796434615627    3.51306140571512
H         2.72073356529926   -2.42284254292024    2.46125473557215
H         0.26206781213736   -3.12881162382515    2.71039284865910
H        -1.07738698144190   -1.97579815181383    2.36606574663663
H        -0.04295404046275   -1.80588472253843    3.77788773080585
H         0.12313954170686   -1.29462107424256   -0.10200463501103
H         1.05431976662300   -2.68380713345449    0.19487427879692
H         1.82614721613400   -0.77628300919253   -1.42730295144052
H         4.17437650644074   -0.37664943636331   -2.01936361109160
H         5.22822635685248   -1.74592357832610   -1.81169493144104
H         2.97806043769332   -3.29556764240904    0.39688884999903
H        -1.18692122031774    0.16611768319064    1.89422845394517
H         2.74141051127705    2.82430871945993    3.13612455705408
H         1.33996317362934    3.11149118558206    1.99727294941130
H         4.54679570273766    1.21170735713248    0.30585643563924
H         3.30326989280768    2.17178185833077   -0.62429085037632
