38
 energy: -53.125193966766 gnorm: 0.168666414063 xtb: 6.4.1 (79825abcba525fcdf90b791dcacef51065a7a4e7)
C         1.13635082601485    1.10084602177772    0.06594449180538
C         2.59148928004694    0.36813923661376    0.30810511924123
C         3.37558830676700   -0.38543455908740    1.63708244484782
C         2.47955011108624   -1.39324750134632    2.43673918739627
C         1.06120759706454   -1.13571832937673    1.99197008848231
C        -0.09201147342946   -1.91644840406919    2.60795345681628
C         1.05744362551359   -1.59597200550971    0.35580323160660
C         2.23751639517766   -0.90763279105801   -0.45377766007809
C         3.34431918005882   -1.85611618155574   -0.88528209658508
N         4.60600662433529   -1.38793126693232   -1.14749114135097
N         3.31677518289950   -3.14913800558914   -1.02043775152420
C         0.72553696386285    0.41421727160879    2.41641529349617
N        -0.40543509190119    1.05283103817396    2.47734194520244
O         1.77499085532201    1.04534121630356    2.92084289369362
C         2.17079196178068    2.36124679734569    2.42524277002959
O         3.29435888012334    2.37106372234140    1.51039502632694
C         3.34712997422066    1.67435747225095    0.22988311010637
H         1.23258003208278    1.42139616591265   -0.97625803573546
H         1.07301451999848    2.06414753666302    0.59583405380431
H         0.22580902906878    0.52919034459280    0.20964726268200
H         3.84493079116469    0.44631414795851    2.16873736910013
H         4.20269517952503   -0.91099783688221    1.13314127887523
H         2.55195935713389   -1.20507554372818    3.51204164797014
H         2.83322417015356   -2.42220558239076    2.29315764017923
H         0.02292593124866   -2.97926726731052    2.40133780939786
H        -1.06588076947776   -1.66609018124932    2.15251418484139
H        -0.15211476878960   -1.70117424491321    3.68045535904691
H         0.06939105744768   -1.37793970645236   -0.06399848358745
H         1.24087993778369   -2.68290541409337    0.41086774570145
H         1.91148702703965   -0.64114611008146   -1.47392841046953
H         4.69417718016186   -0.41815723739306   -1.38305408636035
H         5.41600436917988   -1.98988968640476   -1.24513434759696
H         2.42529458932079   -3.61339086860513   -0.85960925907060
H        -1.14120326206503    0.44836686106457    2.11258588501753
H         2.62623479191900    2.75803112016404    3.33857221060814
H         1.40452701502995    3.07161439041991    2.10021866284564
H         4.42441615526594    1.49746956443391    0.20058209455131
H         2.94095478688398    2.40999833513213   -0.47298891295266
