38
 energy: -53.125282268998 gnorm: 0.159086297502 xtb: 6.4.1 (79825abcba525fcdf90b791dcacef51065a7a4e7)
C         1.11254561985905    1.23923711627121    0.03232666128705
C         2.48251513049654    0.36599219309266    0.30353826483956
C         3.26816813421242   -0.42644886168063    1.60877846928023
C         2.39736936030510   -1.43939897286752    2.42954873575796
C         0.97794088428013   -1.20134444237703    1.97745459336384
C        -0.14244968497585   -1.96800614942397    2.66726900430914
C         1.00919112633499   -1.61783078051646    0.32989516578456
C         2.13561425607272   -0.87888241912623   -0.51089616331111
C         3.36346204708558   -1.72313541877942   -0.81165504155266
N         4.38567302314872   -1.04614772494153   -1.42531479114749
N         3.59695056684362   -2.96184074344470   -0.49224405117337
C         0.81479871800826    0.37617719427309    2.40164665040568
N        -0.32636137765695    0.99236854602816    2.30837712553781
O         1.78291041790107    1.02875320989829    3.02696443609402
C         2.27737232596581    2.26236941734232    2.42067741628556
O         3.39220890054890    2.14365879890061    1.50280347322862
C         3.52894899040759    1.45325500045534    0.22509462449089
H         1.22470553782501    1.35180332289415   -1.05070037697727
H         1.17621331369089    2.29438662357385    0.34111489684088
H         0.15979337259769    0.73765629653124    0.16350170651718
H         3.63394030034874    0.27896317395116    2.35934479746035
H         4.02130200768945   -1.09866604368589    1.16697233462010
H         2.58433995153018   -1.26267138897569    3.49290968537812
H         2.72752935577263   -2.47461242967597    2.27533071792474
H         0.17446375426962   -3.00882244082442    2.70912446272918
H        -1.10005174880425   -1.79056903574126    2.14761534999896
H        -0.14777397223106   -1.50125356912828    3.65839431325741
H         0.07667154730244   -1.32457882406489   -0.16450341644142
H         1.14149049459331   -2.71341449963409    0.31262126767939
H         1.70620308493117   -0.58594329192178   -1.48445178194502
H         4.20215516001630   -0.16092802795481   -1.85709354882915
H         5.25735706841744   -1.55339839046887   -1.52946935294968
H         2.80805201755163   -3.40885272118271   -0.02969292471014
H        -1.07027584860440    0.50566756224811    1.80888526005482
H         2.76214842226505    2.89323738451652    3.17302997554899
H         1.30703801788400    2.70640277773892    2.17837500775539
H         4.57579839933547    1.14291862397891    0.20293513385766
H         3.27957689346891    2.20547745060931   -0.53131121347985
