38
 energy: -53.124776654384 gnorm: 0.151465457646 xtb: 6.4.1 (79825abcba525fcdf90b791dcacef51065a7a4e7)
C         1.10527016984837    1.17353860095713   -0.01855540075784
C         2.52627523079710    0.37772716123083    0.22712262487506
C         3.30217014485502   -0.30572877301644    1.59815893478061
C         2.44310935004371   -1.39343788829638    2.33091108467696
C         1.02846462663184   -1.08683798426322    1.90592509016340
C         0.03336903430602   -2.10525822864483    2.44582705066053
C         0.97937878369997   -1.40975341919319    0.23793055242417
C         2.28087920322649   -0.92490233494165   -0.53201746537831
C         3.44344291883476   -1.90401683484111   -0.50732586171426
N         4.62100092850983   -1.31834932166187   -0.89482635337804
N         3.53829542932069   -3.17803742099100   -0.26482694706616
C         0.64629478756341    0.43247361780418    2.39660551471857
N        -0.53241743993207    0.82201595450368    2.78329867747784
O         1.72760908680116    1.13983688973801    2.68731954666685
C         2.16865464057410    2.43699466463366    2.18061845937444
O         3.34389349371300    2.40979012962116    1.33355357058559
C         3.38926012398311    1.61282376077823    0.11261883319438
H         0.80346574579235    0.79582895851784   -1.00061857543031
H         1.28326599513050    2.26030463373866   -0.01740599259267
H         0.22272232372627    0.97328804176524    0.57938780259032
H         3.54843030684116    0.50788995252992    2.28527300383018
H         4.23615041482407   -0.69841702131254    1.16485069507216
H         2.56189411384303   -1.42088964466899    3.41813863164406
H         2.86072984774182   -2.35591876447664    2.00891821108258
H         0.40392256239900   -3.10450777273540    2.22294817056754
H        -0.97321743461454   -1.96924919017554    2.01361090969386
H        -0.00726782105140   -2.03596289591205    3.53842143908194
H         0.10951419285229   -0.97074967961803   -0.26269980688877
H         0.93584766287589   -2.50659867901142    0.12329752440471
H         1.86843447403873   -0.86709389527537   -1.55405728010881
H         4.59888291617856   -0.35566334138362   -1.17136228211347
H         5.48210779968873   -1.85248769226913   -0.92911406235440
H         2.69873831674081   -3.60897887254828    0.11670614253861
H        -1.31013769056055    0.23082119178875    2.49103394213637
H         2.50322931714717    2.87302852731649    3.12770392910730
H         1.37135318023991    3.07673338844261    1.79014503900832
H         4.46824569906630    1.53158117060512   -0.03531076857591
H         2.98810618764205    2.14161775738600   -0.75894716165263
