38
 energy: -53.124218412697 gnorm: 0.155597002140 xtb: 6.4.1 (79825abcba525fcdf90b791dcacef51065a7a4e7)
C         1.27887793484935    1.27326811475485   -0.07733473299392
C         2.56986825099601    0.36255384494550    0.38836090856195
C         3.30105369427062   -0.48337358409073    1.69167978914066
C         2.36712959418920   -1.47217231857787    2.47147790596725
C         0.97221735760449   -1.12213118006793    2.01592623433628
C         0.04177719202427   -2.10452297008810    2.71455101038923
C         1.00487798681925   -1.49013951222224    0.35689258187248
C         2.22394057214376   -0.86776480706078   -0.44830301593510
C         3.38093683276732   -1.78801028190998   -0.80233289288769
N         4.44396855667816   -1.09095449825166   -1.31602804047290
N         3.43575976207413   -3.08701162310810   -0.77950481934092
C         0.66145255398274    0.43887710376259    2.41817880132127
N        -0.54684182367690    0.91914566598068    2.42021191748395
O         1.68797943209405    1.10675577649248    2.92245915939119
C         2.22411075698537    2.35092560539668    2.37611669287298
O         3.38881228427915    2.29596718383747    1.51594503205974
C         3.52446226538489    1.52911197995773    0.28248350795789
H         1.47487131377425    1.31058151212886   -1.15362134380377
H         1.24837888265156    2.34771359620715    0.16220848458457
H         0.31682221959258    0.86486079303069    0.21280199520312
H         3.73263172758547    0.29955137753819    2.32057894046000
H         4.13701523423302   -0.90741151734579    1.11233587767187
H         2.46042105226548   -1.27995172726628    3.54445279086776
H         2.61625186252867   -2.51523864101845    2.23822596630963
H         0.32742746967023   -3.15508334531593    2.72908932695562
H        -0.99915447866457   -2.21227289847180    2.36330072746081
H         0.02421527244510   -1.96580127813349    3.80113444215806
H         0.06730376732521   -1.17448254669373   -0.11356962970985
H         1.00226092883978   -2.57700668649310    0.16501217600009
H         1.85627985983431   -0.51987486131473   -1.42902521617945
H         4.26773802315146   -0.33076888139588   -1.94434821930154
H         5.10009297055790   -1.77220000188886   -1.68125373944897
H         2.62613461567475   -3.54022438154473   -0.36088865625661
H        -1.32765846452321    0.30048626123409    2.20257777589691
H         2.49137424667509    3.00738970451825    3.21077933872062
H         1.50474128043312    2.98878086183165    1.85355284734611
H         4.57071366072210    1.21976562567915    0.33102469888363
H         3.55191123349034    2.21997954786724   -0.56729493107756
