38
 energy: -53.130791117335 gnorm: 0.151354204637 xtb: 6.4.1 (79825abcba525fcdf90b791dcacef51065a7a4e7)
C         1.07197590693852    1.17128400876940   -0.00172044540288
C         2.51412841918932    0.41547585086001    0.24703456715842
C         3.29079276105100   -0.40902616055523    1.53771438724377
C         2.44236248161806   -1.41441356358625    2.39058277994566
C         1.00906216517323   -1.13701112970487    2.01040602267695
C        -0.15579398814465   -1.93603827712535    2.57922486849560
C         1.15689675373962   -1.54454229037674    0.36694844761040
C         2.25407241993406   -0.85896618630467   -0.55391787132912
C         3.35690437343326   -1.87054287633150   -0.82094501924713
N         4.49677595341550   -1.21084579502006   -1.20212535689858
N         3.41264363091426   -3.15097316945481   -0.60112112695057
C         0.80402669246689    0.40572053635618    2.53296532590958
N        -0.36913173865111    0.95576057612026    2.64155900101726
O         1.86301923581699    1.08050532794794    2.95405714452174
C         2.29504860721175    2.36727284076473    2.41418173577354
O         3.37790890434948    2.29961574921137    1.45382687157939
C         3.37979575106524    1.65001023082158    0.14772417341145
H         1.03837995215523    1.45494184305501   -1.05841723287730
H         0.88562819533346    2.11536690406072    0.53374780819834
H         0.23634901253467    0.54188248336488    0.28482531913801
H         3.78477189546732    0.30627502205565    2.20034102773411
H         4.10046560486120   -0.87764232039842    0.95538457041186
H         2.57510841332879   -1.17547134478200    3.44992799789325
H         2.74063067263363   -2.44352541994049    2.15305258162769
H         0.18004162209837   -2.96526718401560    2.46352325507396
H        -1.05996839978287   -1.83045745027188    1.95484767251725
H        -0.32369168703144   -1.71849121165364    3.63974329011827
H         0.17924861571671   -1.52639134268468   -0.12690789552712
H         1.34422524708201   -2.61886272535447    0.53679794662095
H         1.80387192746264   -0.66081635810317   -1.54188244147899
H         4.41812427814119   -0.28216321842996   -1.56966882799612
H         5.13319111818860   -1.84596694556129   -1.67072043975321
H         2.63206080354842   -3.65825638558681   -0.18943149389690
H        -1.13912560351296    0.40706812259409    2.25968893165143
H         2.70359066726853    2.77775377825203    3.34350160320621
H         1.40658352908922    2.80837612749368    1.95214012896263
H         4.43035652405141    1.41608037774972   -0.03745756895645
H         2.99180742918565    2.35196985651793   -0.59852818971378
