38
 energy: -53.127072835768 gnorm: 0.136418197031 xtb: 6.4.1 (79825abcba525fcdf90b791dcacef51065a7a4e7)
C         1.17770121924741    1.22875233337050   -0.09943370757686
C         2.51600318648407    0.38867156029519    0.36547598695314
C         3.30345510429883   -0.31012030511457    1.72211700946125
C         2.38411311954059   -1.30181121683393    2.51545282156030
C         0.99070330702617   -1.13634110358140    1.96149884370048
C        -0.00082018919138   -2.10866231655763    2.58628820971545
C         1.08078110627138   -1.47912825339441    0.29918945692368
C         2.33848492045285   -0.88152041027906   -0.46425655600953
C         3.49367919715616   -1.85148618014727   -0.65272890331619
N         4.29244037351215   -1.38314915280985   -1.66389007945338
N         3.84286626941429   -2.92279596844794   -0.00365658128459
C         0.53223634154411    0.39488536903719    2.33604166228892
N        -0.67866871239480    0.86835251206400    2.34927620688991
O         1.55840301778681    1.08146577602906    2.81531960991097
C         2.18127468746648    2.28992690268568    2.28096200866561
O         3.37075735290042    2.27265102065018    1.45375109269233
C         3.51278324445709    1.51442002229893    0.21568422837083
H         1.20907512932365    1.36483961590107   -1.18511067669977
H         1.31512913515559    2.25332564035345    0.28018102980971
H         0.14262400586443    0.98319071035560    0.11232487860081
H         3.55654393016517    0.42145516838796    2.49379609161208
H         4.30178498723812   -0.63666418410322    1.38897175383543
H         2.42626218373932   -1.01928198367273    3.57154365200272
H         2.65792817716043   -2.36446286088337    2.49956198886780
H         0.31202462432311   -3.13893895666444    2.42460108802697
H        -1.02194946799684   -1.97674907161747    2.18826879082537
H        -0.07759806434457   -1.93375582299609    3.66505072503809
H         0.14547274275763   -1.14999405485695   -0.16652330714552
H         1.26557223256692   -2.56402739519833    0.21581501053598
H         2.04398110457310   -0.61729941663381   -1.49453448821378
H         4.11473333425580   -0.63391048721617   -2.30481694143419
H         5.19583804297693   -1.82307337133857   -1.79925557823201
H         3.24945474659577   -3.16568732097009    0.78691329465669
H        -1.37143118590019    0.14364455924281    2.16311162262755
H         2.64350380424558    2.72224301684086    3.17454113241604
H         1.41860903923289    2.89651917950746    1.78315515122227
H         4.53561787197688    1.13166329786166    0.21555462930612
H         3.26479974906998    2.17295791310752   -0.62396265251340
