38
 energy: -53.105828376266 gnorm: 0.171689886922 xtb: 6.4.1 (79825abcba525fcdf90b791dcacef51065a7a4e7)
C         1.02154949749281    0.91557192517040    0.05567049942726
C         2.49663900778803    0.22299093014048    0.29519385360413
C         3.25890548298927   -0.43249692109532    1.68736877726754
C         2.30768418524553   -1.18478781776132    2.68097772978697
C         0.95318514536325   -1.08090387684436    2.02494663642562
C        -0.25830854432052   -1.78976939442817    2.61543954556904
C         1.25500064191913   -1.75829071722347    0.49558598165833
C         2.33863673800067   -1.09645717058938   -0.45809792924975
C         3.62247696153102   -1.79477733882799   -0.87634724493669
N         4.74100354477793   -1.00221038512307   -0.89962453259853
N         3.69774298596702   -3.07100690307823   -1.11405358693271
C         0.65771837053452    0.48630224374795    2.41442469751248
N        -0.52388421833660    0.87398380966364    2.79410310173548
O         1.62857630479026    1.31141993673601    2.77599586762561
C         2.43001636770717    2.35985827294529    2.14961233917538
O         2.75340608254708    2.53598878960979    0.74824069088946
C         3.43907165689118    1.39532223802835    0.15104917211317
H         0.20421416369626    0.19142633066506    0.13166175165353
H         1.10532702810823    1.29705512906656   -0.97398776475569
H         0.85439950683909    1.80009316320649    0.66082347916710
H         3.84386430246014    0.35421518410643    2.17074491502469
H         3.88671858925353   -1.15590105726821    1.14256018106394
H         2.26741999566687   -0.67141103710160    3.64624983992509
H         2.54894505623415   -2.25298920942845    2.75305214744187
H        -0.01188755192334   -2.85024048109115    2.62818061972763
H        -1.20600146120859   -1.71796556809230    2.05397012325595
H        -0.46128086860352   -1.47629368324654    3.64536716855346
H         0.24872272749350   -1.88108433741739    0.08044031268966
H         1.69186153844643   -2.73567122167653    0.76388641592871
H         1.87225362673605   -0.76425024737641   -1.40157194444992
H         4.60809192751362   -0.05132519086474   -1.18576693104653
H         5.64885772257225   -1.39376174449658   -1.12428608698233
H         2.81319605357598   -3.53696994495522   -0.92277015741280
H        -1.25150084670662    0.17140428693788    2.66474014673797
H         3.31528900725199    2.11871864341154    2.74725827151024
H         1.94682524242960    3.30079590056082    2.42994690300098
H         4.47133164618340    1.28823982511995    0.49114632834452
H         3.47883252586382    1.74058626101571   -0.88788619227411
