38
 energy: -53.123396701696 gnorm: 0.158250845036 xtb: 6.4.1 (79825abcba525fcdf90b791dcacef51065a7a4e7)
C         1.11937282351361    1.07849710708434   -0.02622447411040
C         2.53252406910038    0.31860009447499    0.34591658373127
C         3.35467499609824   -0.46311995340381    1.63504305329301
C         2.40270515467188   -1.34170073958917    2.51814636907108
C         0.98679901803244   -1.12131242149443    2.04647375896730
C        -0.14662467518205   -1.97704387822169    2.59598582755975
C         1.07550319683837   -1.60225015336948    0.41867771025068
C         2.24839097166998   -0.96093888570341   -0.43856082629673
C         3.48134595930866   -1.78343605739533   -0.77642116797947
N         4.53816940688392   -1.08889494437704   -1.30608402449639
N         3.43272736716629   -3.07595296524228   -0.91046381820007
C         0.74164392051281    0.46905013688497    2.37170394539072
N        -0.39167967782215    1.06936426242284    2.58580184699153
O         1.78993521424088    1.05911275744952    2.92580640007081
C         2.27652413800157    2.32582590908311    2.38492333861247
O         3.42661808351011    2.26428092745928    1.50575241918006
C         3.39509522565459    1.55403945959138    0.23199478536003
H         1.24646083700525    1.63564741996723   -0.95983612660705
H         0.71976399821575    1.84636119535672    0.65454109277779
H         0.26456615773280    0.44659498919088   -0.24193801495857
H         3.86753268702963    0.17870648277232    2.35600146854743
H         4.13183785266962   -1.05461201311228    1.12471545305483
H         2.50676735473230   -1.21080684173685    3.59933321032298
H         2.69348855932466   -2.39406055660657    2.40661366507916
H        -0.12550261972245   -3.04997837794776    2.41200223683113
H        -1.07855279122870   -1.73053315488510    2.05814941044348
H        -0.32863962784240   -1.75879460578214    3.65402812116136
H         0.14234688809985   -1.35371581041565   -0.09849673613726
H         1.24736075386700   -2.69027303534143    0.48778908769368
H         1.88053083633459   -0.76960104987097   -1.46134456845426
H         4.47381883580977   -0.12902335307183   -1.58578233541180
H         5.19915106686925   -1.73904373115773   -1.71644275333357
H         2.59069961502231   -3.49381868121195   -0.51993637384075
H        -1.17596736684443    0.61810217114590    2.11565925313383
H         2.78209086704547    2.89514937859890    3.17188566229776
H         1.37116022361495    2.82400048021576    2.02497468965086
H         4.46832130654972    1.39243453768711    0.11049164168364
H         2.99941448616762    2.28299397180541   -0.48371249282551
