38
 energy: -53.124843683773 gnorm: 0.145367938540 xtb: 6.4.1 (79825abcba525fcdf90b791dcacef51065a7a4e7)
C         1.15676316930777    0.99730218821193    0.01013710362513
C         2.61089698009984    0.29698962053344    0.33874945618627
C         3.34960937002913   -0.37398339725634    1.73623458917949
C         2.39764549895978   -1.17427036145504    2.69086951271657
C         1.00425996297322   -1.07395133628098    2.12144072483254
C        -0.11242269399947   -1.90319210393111    2.74133486606811
C         1.28360207124855   -1.69291483296252    0.56331950421694
C         2.29485413378894   -0.98232615156415   -0.43379474506445
C         3.47339266587883   -1.82947412128456   -0.88569793241358
N         4.50716698640277   -1.14384888981964   -1.46967961942355
N         3.55586961158480   -3.12595494510087   -0.94284857336890
C         0.59629019567035    0.50820262700531    2.28106010040340
N        -0.58039420328130    1.04977352608439    2.16813464222389
O         1.55532854648500    1.18477181670503    2.89475193330332
C         2.11062716648748    2.39481613802964    2.29365155003682
O         3.30752446740249    2.25970128808040    1.48827821498417
C         3.54179800774899    1.48551488896051    0.27433979510951
H         1.22477368187423    1.10315162311992   -1.07723083283376
H         0.87099564454072    1.95475475021329    0.47313359260613
H         0.35552277977786    0.28181622204173    0.16053902027808
H         4.05842900007577    0.29843854177621    2.22630468759756
H         4.05526791709987   -1.03686180689350    1.21000510856196
H         2.24356834028817   -0.76187466753908    3.69242689290044
H         2.75228890578755   -2.21076087487141    2.75698459315898
H        -0.06837027529595   -2.98555971163967    2.63167948987946
H        -1.07255163438769   -1.60975507743804    2.28245285360266
H        -0.25468353094205   -1.71347209242306    3.81090667945148
H         0.38369799309495   -1.71201114349054   -0.06104211207244
H         1.60498520801998   -2.73699903876982    0.72050175836026
H         1.73326340970945   -0.77858089766771   -1.36176111348703
H         4.56607531737192   -0.14899205322292   -1.57222374591100
H         5.23853728122562   -1.79427230503944   -1.73431401424934
H         2.69557009200414   -3.53954460992434   -0.58934821159533
H        -1.27855981103787    0.37071672457916    1.86609927180056
H         2.54343558089674    2.96405844137695    3.12291430118238
H         1.26392853261826    2.93009922790973    1.85319929081879
H         4.60532479193672    1.27074895451814    0.39875751112111
H         3.38934487589592    2.08252390470935   -0.63148200163655
