38
 energy: -53.134875079283 gnorm: 0.144760588250 xtb: 6.4.1 (79825abcba525fcdf90b791dcacef51065a7a4e7)
C         1.04002508865041    0.97015340906341   -0.03136607099941
C         2.52917414580991    0.35181116649918    0.30481373005675
C         3.24662937401023   -0.34588781305829    1.70028483142154
C         2.31445619808790   -1.23065335820825    2.59820764209294
C         0.93200208777411   -1.10294752255140    2.00799737623204
C        -0.13329826898722   -1.94525999196866    2.69686166238600
C         1.25384192739379   -1.70973962003284    0.45329096682870
C         2.31981393540769   -0.95811540805736   -0.45256142854742
C         3.52350639866075   -1.84061668477567   -0.74091051829260
N         4.53203123840477   -1.08510181687282   -1.28117050529901
N         3.72492807018580   -3.11623090003489   -0.58869736218143
C         0.60302685071790    0.48437414672691    2.26744685758328
N        -0.61260578158375    0.90156846971750    2.46448381841208
O         1.66135613832673    1.15244211976724    2.70073933409564
C         2.28443624524967    2.40407561124121    2.27757240726614
O         3.40333838475401    2.30719294803290    1.36208503868447
C         3.37452175632701    1.58645131837687    0.09417484549619
H         1.10827607995746    1.25867046700904   -1.08507298838906
H         0.87450745440902    1.98190089659698    0.37077218057655
H         0.14878319653750    0.39079761653512    0.18441579143844
H         3.68928405496212    0.42691135706590    2.33399100211885
H         4.07849132144450   -0.97910733555964    1.35197754141809
H         2.41713658135037   -0.85674515066533    3.62123088338542
H         2.67059371991176   -2.26810454444846    2.63449579217301
H         0.21092387313646   -2.96672124163605    2.85052556164834
H        -1.05688731194734   -1.87618155341035    2.09624779263379
H        -0.31869068291023   -1.54876036486723    3.70116908172794
H         0.32908059733064   -1.90542289348925   -0.10037316524288
H         1.69515780144092   -2.66930129125227    0.77358289644968
H         1.76134579420583   -0.79605786812037   -1.39057450873313
H         4.38154581425232   -0.34833132735712   -1.94317428284829
H         5.36822684966547   -1.60267784537592   -1.52790202928987
H         2.90583683982968   -3.54518263709517   -0.16299307280146
H        -1.20413478034252    0.10396821028823    2.23273828154571
H         2.76167483314340    2.83136837514667    3.16566071930453
H         1.54039973867248    3.09608662062081    1.87142565044206
H         4.43836871778448    1.43321610027443   -0.09932450993957
H         2.99599507796835    2.25302970000635   -0.68849089262878
