38
 energy: -53.122312522525 gnorm: 0.157386999534 xtb: 6.4.1 (79825abcba525fcdf90b791dcacef51065a7a4e7)
C         1.24658264380333    1.22821047018281    0.00900582828089
C         2.57065883698976    0.32703864992064    0.39324599493531
C         3.23411932498613   -0.55175848667322    1.71097178298455
C         2.29317655767374   -1.41489176210425    2.62072445589399
C         0.91145520211444   -1.21260275082398    2.04996923973676
C        -0.23627341795989   -2.02906174379996    2.62876353946747
C         1.02365038804402   -1.49080445303385    0.37697624568166
C         2.22338342615226   -0.88513262597705   -0.46895877992934
C         3.47815971326758   -1.66472059313946   -0.82757875861736
N         4.37811390009208   -0.99673258609737   -1.61731313437355
N         3.76373596428119   -2.89324488601391   -0.51118435552359
C         0.65321743974864    0.36800115312844    2.41070923540553
N        -0.51345689452458    0.94099469094696    2.44515834365944
O         1.74733223181013    1.00379195337825    2.80160681778328
C         2.39054019974686    2.25309621879743    2.40234775265008
O         3.29965265812764    2.38222151610073    1.28150586068201
C         3.57212733735774    1.44196064318563    0.20004287329237
H         1.47752908060589    1.35027999694471   -1.05399056904222
H         1.26885119107449    2.13894101826559    0.62772888930502
H         0.34219272849578    0.66850617021327    0.22193080374636
H         3.74703888674205    0.16613797553757    2.35617208676327
H         3.92715331020474   -1.15862037623478    1.10623896555026
H         2.39138214728866   -0.98230841587633    3.62080168521522
H         2.57233130053784   -2.47130156032209    2.51812479010112
H        -0.02739387853167   -3.08261432907735    2.45021146590601
H        -1.24967224207373   -1.89695487998811    2.21151522719404
H        -0.39483478766507   -1.79184896875162    3.68649889188671
H         0.10738734275826   -1.26132216089982   -0.17783843488610
H         1.06790543510497   -2.59303357445746    0.34179585360025
H         1.67536433988535   -0.66704976803338   -1.40176786836755
H         4.24677779880775   -0.06624836032476   -1.96469699199872
H         5.12841156203706   -1.61640978801339   -1.90198500003998
H         3.04304974246221   -3.33765650382149    0.05383233250870
H        -1.27243341255247    0.26956249875079    2.33152661358608
H         2.93303295673008    2.62312749909729    3.27859833149244
H         1.56743567156052    2.94267153765237    2.19161199194236
H         4.61290095290396    1.14454240094294    0.34504655986670
H         3.54004927790184    1.98482887060458   -0.75097759504382
