38
 energy: -53.131629348730 gnorm: 0.149614306903 xtb: 6.4.1 (79825abcba525fcdf90b791dcacef51065a7a4e7)
C         1.15418833930934    1.28709768217226   -0.10325587255509
C         2.49220476623133    0.46641215696663    0.39585955171868
C         3.28021450575650   -0.27991670047384    1.72661097885695
C         2.40269701287952   -1.36481186464116    2.44144508588896
C         0.99043926663462   -1.15639220741760    1.95366892981021
C         0.03801124972022   -2.13825506909148    2.62278426253594
C         1.02888732758272   -1.49914266554819    0.28935723270961
C         2.28997538024256   -0.82240768933804   -0.39874926061816
C         3.44571126530898   -1.79472380613757   -0.57110121043130
N         4.33029504895157   -1.43576929677106   -1.55520949460519
N         3.67703498506735   -2.99866374083283   -0.13757019409854
C         0.61777135220648    0.38635974455912    2.37338766779511
N        -0.62931672489332    0.74334138611352    2.46267801703669
O         1.62134532263412    1.17906206282817    2.71774263633951
C         2.21209709811573    2.42328697464409    2.23111943622146
O         3.37912590397683    2.39810518484111    1.37271685082312
C         3.54526606901008    1.53392500360248    0.20932301374225
H         1.25022560213698    1.22117311568800   -1.19166266947346
H         1.04537845734772    2.35120278411024    0.15863145989818
H         0.22798038530888    0.79009771348936    0.16443222615595
H         3.80738232909136    0.31907959602249    2.47363356884142
H         4.07302958604545   -0.79453606717228    1.16013909699922
H         2.38279491918541   -1.15093086712884    3.51419202026325
H         2.82350023356839   -2.37302642410594    2.33711977112846
H         0.13329787601696   -3.13069220648562    2.18520736148054
H        -0.97452570717680   -1.75573695408659    2.40604854185314
H         0.12460857198249   -2.17734438307222    3.71420013921879
H         0.03522634905001   -1.32911810381895   -0.13930223424264
H         1.17698437610567   -2.59278114308499    0.30064263105986
H         1.93798953410226   -0.66809698755138   -1.43330811950014
H         4.50662882424326   -0.46747276488999   -1.74238279976899
H         5.13663008878076   -2.01110011463992   -1.77154890839577
H         2.92726917588271   -3.37756862279658    0.43724847125163
H        -1.27756655150219   -0.03680157516116    2.35814173470877
H         2.59278290249559    2.83896170817363    3.16991092374785
H         1.49960818900379    3.10132459559620    1.75148491418093
H         4.59274882263795    1.23107181571513    0.27058660541667
H         3.33491682154127    2.19146775661949   -0.64130356531273
