38
 energy: -53.128520884720 gnorm: 0.149870669529 xtb: 6.4.1 (79825abcba525fcdf90b791dcacef51065a7a4e7)
C         1.06955477610609    1.11162595249712   -0.07397851137549
C         2.48330501538181    0.35034991377265    0.29303367856367
C         3.29523792185050   -0.25220008295352    1.68104085268415
C         2.41564797630155   -1.29892026881169    2.44832218852187
C         0.99351456445712   -1.14213801720478    1.96999993795371
C         0.03748569481602   -2.05749986939710    2.72300100147921
C         1.13010058684103   -1.62466119354080    0.34599095987024
C         2.27771017622512   -0.93433661843606   -0.50738353738772
C         3.46493266147349   -1.86546193418330   -0.69268773205847
N         4.51596101809670   -1.30111139839786   -1.36844935555426
N         3.58756908019507   -3.10467866753459   -0.31821029672070
C         0.70890130093273    0.43072208113313    2.34447981280589
N        -0.42888087914854    1.05877235941469    2.38500019856262
O         1.74512378526891    1.11758768817956    2.80118174755583
C         2.11534086287886    2.45169182996440    2.33535889953410
O         3.23578317930284    2.36827421493179    1.42042945266376
C         3.31720355541344    1.60537986008566    0.17976105286795
H         1.18897973971822    1.43403958340390   -1.11320210913243
H         0.87173616601592    2.08540426414551    0.40075070786275
H         0.27781148472676    0.37216054267607   -0.02049458347441
H         3.83224865981164    0.42354229797938    2.35166513343198
H         4.13595308965759   -0.82470532713385    1.25711281211192
H         2.50495010361597   -1.12701446553422    3.52507688741826
H         2.81371966705240   -2.30840007258747    2.28417229909752
H         0.54218994885130   -2.69911954817479    3.44347470372252
H        -0.48348746626557   -2.76458575249166    2.05431416716188
H        -0.75269427474456   -1.46629385904553    3.19871809766806
H         0.14974655069843   -1.55141954830005   -0.13729058810865
H         1.30874518669110   -2.70989197462841    0.43799890458755
H         1.89226364107913   -0.78384411313619   -1.53051637957408
H         4.30248110962530   -0.49473965892857   -1.92335165746218
H         5.33535206693864   -1.88078509354943   -1.51184112910968
H         2.80655754125150   -3.60497567337181    0.10114402764431
H        -1.12783464159608    0.38414044742042    2.07497739137805
H         2.55289877978284    2.84409098131567    3.25926506802389
H         1.33907533071415    3.11126567052937    1.93561032979332
H         4.40456024957215    1.50558456798565    0.19950219427796
H         3.06726082881967    2.19644800830990   -0.70812515707468
