38
 energy: -53.130581081307 gnorm: 0.152077772749 xtb: 6.4.1 (79825abcba525fcdf90b791dcacef51065a7a4e7)
C         1.28532870289004    1.26625141570840   -0.13635623614423
C         2.60371200971227    0.36002694143442    0.25550034375608
C         3.31274801896133   -0.31143088223337    1.66804337601932
C         2.43053333764415   -1.38100363920073    2.39998165905533
C         1.00203363104291   -1.11158791250573    1.99669511306301
C         0.18145202878208   -2.10560979293906    2.80753139817215
C         1.00107987194422   -1.54182128733587    0.35237522406323
C         2.20860843611806   -0.92322547321955   -0.47286282041986
C         3.40309808712076   -1.85436764360668   -0.60323926874098
N         4.38436734197746   -1.20170639863827   -1.30391743227336
N         3.62995943293651   -3.04671316089028   -0.13657313670597
C         0.52163843010731    0.43529038366841    2.26412135218406
N        -0.69613313981499    0.88451601096908    2.18753102411041
O         1.60229060157102    1.06471881554047    2.70015896024912
C         2.14511887919949    2.35041346150710    2.26863584133041
O         3.33299042336386    2.33488612270278    1.43907844930089
C         3.54894708129735    1.53878338271741    0.23596652265327
H         1.27876114438912    1.34871062689746   -1.22784874934533
H         1.22121977229618    2.28214228004525    0.28388183536773
H         0.30929817714394    0.84162457575581    0.07241043439101
H         3.57523565623773    0.45188764635430    2.40505782832770
H         4.18574021675909   -0.76725904532546    1.17369072261785
H         2.50328444094238   -1.23753756694652    3.48213318406826
H         2.78373213533443   -2.37914800389719    2.11116655506843
H         0.58566040137622   -3.11344783069708    2.72776523680038
H        -0.89726267284994   -2.07811651460313    2.57484216991838
H         0.14678174500162   -1.88166203726140    3.87938076438808
H         0.02938679353453   -1.35286107454227   -0.11680068880685
H         1.08126719515524   -2.64181923024937    0.31139070770282
H         1.95914310734838   -0.56904954959963   -1.48792159688412
H         4.18664723482635   -0.36592451081161   -1.81976723505649
H         5.11964073010092   -1.77109957930097   -1.70783443366646
H         2.82193576955909   -3.43174517222374    0.34817658220912
H        -1.41155963491006    0.19585293899691    1.95582687304139
H         2.54312926124066    2.78265509814550    3.19264424517511
H         1.34399520941478    2.98325371791510    1.87475918114309
H         4.58961933144566    1.24909974853950    0.39652200585072
H         3.43055623829546    2.15812842963471   -0.65989628565119
