38
 energy: -53.126289696974 gnorm: 0.158483734615 xtb: 6.4.1 (79825abcba525fcdf90b791dcacef51065a7a4e7)
C         1.05792739628433    1.03847821741276    0.00387203417179
C         2.50079061800457    0.31634154903462    0.33492076948994
C         3.24634138580407   -0.39174214810867    1.71028872682064
C         2.34568769882780   -1.30254983547301    2.61432112779661
C         0.97638822288724   -1.03952019673813    2.03841256301686
C        -0.10243236281169   -1.96113026063786    2.59128706287474
C         1.11224120336412   -1.60478649545725    0.44125647841049
C         2.24379927469755   -0.95852849292187   -0.46633966635888
C         3.40530618758411   -1.84179888232323   -0.89244333523227
N         4.34652898937128   -1.14910832028262   -1.60944077945221
N         3.68589602610892   -3.10847291925423   -0.80448096365165
C         0.63635455331160    0.53610764647774    2.34970480796967
N        -0.53477525034491    1.01389160225646    2.65105984979568
O         1.70727780948052    1.16786164731276    2.80591567948077
C         2.32781048520159    2.38977377308444    2.30019298735601
O         3.54354237073368    2.22366320353919    1.52957722939102
C         3.46646276199259    1.47721651708444    0.27866906556495
H         1.13929623037961    1.45648158582613   -1.00451819612666
H         0.70432969555553    1.91482339244715    0.56932056072775
H         0.25815998041552    0.30575122104032    0.00708033970306
H         3.63296491780446    0.37177233547229    2.39022484053201
H         4.06727101101763   -0.94988801074024    1.23193008953978
H         2.33627628452554   -0.90232555565641    3.63248571221189
H         2.64871936951046   -2.35669627987112    2.57686693715574
H         0.31792603071564   -2.95991871388656    2.48543330136143
H        -1.06385227148230   -1.93465391759957    2.04953404236483
H        -0.28783409390659   -1.68884099294925    3.63613176507415
H         0.15696552682152   -1.64513204190570   -0.09338364211220
H         1.52531127086855   -2.61815059649236    0.58468430579692
H         1.75061811824013   -0.73204966839075   -1.42732745831158
H         4.39235933146354   -0.15734670707034   -1.74373186598969
H         5.17857611799498   -1.65583709409656   -1.89034647775529
H         3.02436930481594   -3.71684926877176   -0.32657429553689
H        -1.20840647488175    0.25818580815546    2.52895968104629
H         2.75587587436406    2.84343352086790    3.20018714889642
H         1.77189204514870    3.16115882657153    1.75858008103668
H         4.52443245592797    1.22248762405311    0.18643721523219
H         3.15446565415312    2.29039256284747   -0.38584381866321
