38
 energy: -53.128756906918 gnorm: 0.150747779812 xtb: 6.4.1 (79825abcba525fcdf90b791dcacef51065a7a4e7)
C         1.13956440482539    1.12548669894330   -0.10609013733398
C         2.52850644207617    0.34670770905519    0.31494693456297
C         3.22438922281788   -0.31973271338089    1.73637923918763
C         2.34639549792074   -1.26887591963756    2.62310155973269
C         0.97479751757491   -1.13395695958816    2.00962608158697
C        -0.02938946045732   -2.06601747504676    2.67427701460352
C         1.17203589820922   -1.68185614427780    0.41281893478921
C         2.29337278521374   -0.95651578517378   -0.44641839279649
C         3.50888822176036   -1.81987692044809   -0.74299726719870
N         4.40722637225348   -1.29159804819022   -1.63390462601290
N         3.78936651777868   -3.00205842217008   -0.27962916746329
C         0.64781274327485    0.43599140785035    2.36101177009491
N        -0.51845672760205    1.01066315224815    2.34668442554678
O         1.67798165205915    1.15045397520730    2.78811051254595
C         2.15959393989238    2.44121994666962    2.30245807626141
O         3.33636090164942    2.32060208127581    1.46572859111689
C         3.38598489447569    1.58616525005747    0.20634971084807
H         1.16496700511015    1.31211788882632   -1.18438604532555
H         0.86228806133751    2.01795616997995    0.47645626553366
H         0.35240111813431    0.38146069764806   -0.04841572681152
H         3.69801645559024    0.48267643089498    2.30783531585528
H         4.08665368160170   -0.88842928640910    1.35249976896842
H         2.32810661402742   -0.98654142834079    3.67992695285957
H         2.80102706072486   -2.24476576175931    2.41001731202434
H         0.39092731977292   -3.03945025486417    2.92175830629516
H        -0.79223670795698   -2.41032918147136    1.95452768636145
H        -0.28129856428590   -1.58593742834117    3.62626475021799
H         0.18338439271228   -1.67872855606318   -0.05896264295346
H         1.39260294193544   -2.75075811144359    0.57684325285745
H         1.83953580482670   -0.73966922517868   -1.42877648214488
H         4.16510234488577   -0.46995729587110   -2.15352761356496
H         5.09832373642565   -1.99193996482599   -1.87862921596389
H         3.08647766815825   -3.28550188416416    0.39988628443545
H        -1.27899849318411    0.38902219634137    2.07297387929717
H         2.62247224891519    2.94309642240950    3.15855404328771
H         1.49255047991697    3.09535304834079    1.73273212454089
H         4.44941482811334    1.36639432876053    0.09011323792425
H         3.02568173667603    2.31752899708082   -0.52540404305915
