38
 energy: -53.131915142122 gnorm: 0.145916568989 xtb: 6.4.1 (79825abcba525fcdf90b791dcacef51065a7a4e7)
C         1.24634542050761    1.26970661497674    0.04189747959864
C         2.53796128591218    0.30200723476567    0.37085837610831
C         3.28853520646786   -0.47159955604128    1.70765933561801
C         2.33922180525692   -1.41414734925823    2.52523502116776
C         0.96015055239613   -1.13155022259831    1.98289044687460
C        -0.18124976829676   -1.92515437537669    2.60441029501348
C         1.05452957101681   -1.68274445426861    0.37784618597757
C         2.20010679467218   -0.94761405762965   -0.44010243705068
C         3.42841716342209   -1.74193080454452   -0.85379772559219
N         4.10699158281292   -1.07632681283586   -1.84188375743922
N         3.88113078304827   -2.89108591054168   -0.44707412954889
C         0.64059512323686    0.43860678632883    2.34013002354483
N        -0.56459368582286    0.92448890848039    2.38569162014488
O         1.65885629263285    1.09935688148621    2.86991447860468
C         2.32310914263961    2.32633799221191    2.43728187080545
O         3.48656539119930    2.11228823192990    1.60062325989440
C         3.59056332771994    1.38570221478710    0.34000739926976
H         1.63061258312332    1.82263264739674   -0.82112633963891
H         0.95431441793993    1.98844393127437    0.82348483984451
H         0.38250279365541    0.71868174067218   -0.31401622571303
H         3.75396372096904    0.30379525405973    2.32156846880201
H         4.13345635365688   -0.99201515061062    1.22854024958399
H         2.36047242639106   -1.24882903591840    3.60650530373890
H         2.55203193174669   -2.47602066888609    2.34749184484028
H         0.09381756872691   -2.97584998943817    2.68096910870837
H        -1.10176735606571   -1.71703229957892    2.03182130985194
H        -0.30610643331659   -1.54749195950293    3.62519313738692
H         0.02999825610917   -1.54644077154816    0.01483609613551
H         1.33912626540118   -2.74654846261106    0.45154125069491
H         1.80660063234742   -0.70889330454415   -1.44318924879231
H         3.65663406471156   -0.37066547873005   -2.39228888656311
H         5.07791626064042   -1.27757830837497   -2.05351454777409
H         3.31363462925746   -3.26504628983189    0.31070943410545
H        -1.22205255170997    0.39231366575847    1.81620407129925
H         2.74590516839022    2.69365588967602    3.37821636030294
H         1.54896213485708    2.99903586764391    2.05570785760092
H         4.63043316739416    1.05942785437157    0.26994203112492
H         3.44499411022956    2.16909401121889   -0.41184481105921
