38
 energy: -53.129257182681 gnorm: 0.165471785785 xtb: 6.4.1 (79825abcba525fcdf90b791dcacef51065a7a4e7)
C         1.07527284687890    1.25827548947093   -0.04424641525818
C         2.47591012144697    0.45757035384375    0.28743928944575
C         3.24976436781762   -0.34640003854660    1.59267746238223
C         2.40621645970488   -1.41853059758305    2.36532567738981
C         0.99063400262162   -1.15803476551038    1.91354638810022
C        -0.01782282340771   -2.06904602535780    2.60054162957439
C         1.01469397114755   -1.50986303747932    0.25085954381467
C         2.22474684909660   -0.81982205100761   -0.51164902233585
C         3.42664501086857   -1.72995317812381   -0.70640885513296
N         4.61751040673739   -1.25130672011818   -1.18863607163936
N         3.34596753722260   -3.00733983153204   -0.47683173315774
C         0.75442141653465    0.39952880060281    2.37542101505690
N        -0.44043588169302    0.90233846291545    2.47609793362578
O         1.77786713215415    1.02040206249397    2.94216022084140
C         2.26445835692505    2.28420058571373    2.39450362092664
O         3.44898306888667    2.21622334688598    1.56280314551080
C         3.45922544999847    1.60388977293004    0.23885531862428
H         1.10018583898222    1.44245768101602   -1.12297474988346
H         0.92256812410528    2.27879456112755    0.34041749500810
H         0.12191276174720    0.75009782724829    0.05264046036548
H         3.79083264815869    0.32497139180337    2.26442946317308
H         4.07603445020108   -0.86063609669476    1.07584261179896
H         2.63927822823077   -1.36566628477264    3.43294673852022
H         2.74701761566861   -2.43201341863056    2.11801438861644
H         0.26933596864365   -3.10392658795920    2.42152595587473
H        -1.09361764117598   -1.87174163224053    2.45133690898856
H         0.12875026180400   -1.85472783541032    3.66487228366686
H         0.07726576574788   -1.15434626225971   -0.19056499535395
H         1.11311710866835   -2.60821622692125    0.29600785259637
H         1.80483106805311   -0.63787936430139   -1.51593256858018
H         4.46208415568327   -0.44937136740704   -1.76869468368460
H         5.12877552999317   -2.00228230619910   -1.63877842176740
H         2.46172126625154   -3.38084793763885   -0.13810706420664
H        -1.21187257412347    0.34713726314781    2.10675287788200
H         2.71462584760700    2.62935845768535    3.33112089117278
H         1.47393234869610    3.00181657322445    2.15466894056675
H         4.47633046550676    1.22535113867415    0.11679265702917
H         3.26081358906280    2.35974576670852   -0.52892674466326
