38
 energy: -53.125205381807 gnorm: 0.154808907553 xtb: 6.4.1 (79825abcba525fcdf90b791dcacef51065a7a4e7)
C         1.06480474618260    0.97555345804009   -0.13538803808010
C         2.50643073387224    0.31226135589915    0.30584548452992
C         3.27637663586477   -0.35129890143930    1.68994684917299
C         2.33535382692009   -1.25762146444536    2.55659428054322
C         0.94811678533824   -1.07333845292069    1.99316773555625
C         0.02697949972575   -1.96907104447862    2.81051611527439
C         1.17062043710151   -1.69077598393151    0.42531807400166
C         2.29702476823968   -0.99681097245240   -0.45299262564215
C         3.56067077499817   -1.79588913798887   -0.72776911515767
N         4.71784203987578   -1.15361947786719   -1.08588957700859
N         3.58553568292234   -3.09231841982900   -0.82566718808362
C         0.56524422215023    0.48609278071322    2.33479855388413
N        -0.63643491540370    0.97016855321365    2.44559227621998
O         1.52361441651086    1.25738462099898    2.82546495335581
C         2.22421198486825    2.41970505903616    2.28503947660423
O         3.30809264694599    2.27993703629833    1.33366522338331
C         3.39135618636596    1.51834252566935    0.09232073379419
H         1.24622307889127    1.25596854756864   -1.17781469220896
H         0.81956089042963    1.95405329913947    0.30635595272852
H         0.16557092817081    0.36932769683768   -0.11549003778995
H         3.71260549060995    0.43721471846539    2.30857104743240
H         4.15638404189615   -0.79668782177543    1.19852552977412
H         2.38546457948316   -0.98820235728167    3.61575877238328
H         2.59696069887638   -2.32130588220128    2.62436623688581
H         0.33726155400352   -3.00978360390044    2.73224111137792
H        -1.04115219312185   -1.91871921284420    2.53649979114646
H         0.09147902789009   -1.67143261678158    3.86287863413030
H         0.15154218237015   -1.53567944968802    0.05458363772079
H         1.37268455637441   -2.73660299575509    0.71431836177305
H         1.85774944180106   -0.94564981946251   -1.46414918278016
H         4.69371283805090   -0.29685048550494   -1.60462871627979
H         5.46058667075966   -1.65515212119640   -1.55999917295544
H         2.78206593149061   -3.62608319905553   -0.50060458695028
H        -1.26814243739285    0.24815061158717    2.10002836202707
H         2.75193142961412    2.83055043255323    3.15207747688204
H         1.50811650005074    3.18108768072090    1.96111278440586
H         4.46098559311118    1.31327386674583    0.01149264018163
H         3.16976283901535    2.19084107919355   -0.74363197672031
