38
 energy: -53.122023395543 gnorm: 0.154335557356 xtb: 6.4.1 (79825abcba525fcdf90b791dcacef51065a7a4e7)
C         1.07319094472035    1.02269216509083    0.03487653348999
C         2.54389567659812    0.35052663048346    0.34816554425013
C         3.36023734201891   -0.37739606179699    1.67201611126970
C         2.38329044379589   -1.29213304071636    2.48862697308762
C         0.96203816706331   -1.11861271687357    2.01347545282977
C        -0.08557722041302   -1.93421399072423    2.75925404771013
C         1.10956090117481   -1.57991516592301    0.38426501727961
C         2.24783490691332   -0.89469920157370   -0.48557129214679
C         3.41481755574101   -1.81108403407456   -0.81605515570015
N         4.40878449880443   -1.17271872504538   -1.51199004507141
N         3.48424117176821   -3.10521234905558   -0.92256070458541
C         0.68452991155689    0.44792965094565    2.41852237134481
N        -0.48693753892285    1.00433971221455    2.51184557727212
O         1.79822213207279    1.07259768708601    2.77008681829418
C         2.25165730055635    2.40901678496494    2.39290513378979
O         3.45336812192750    2.25738561867646    1.59770423141267
C         3.43983397888161    1.56681837012948    0.31285838246362
H         1.16017181966703    1.17996152789309   -1.04489160795780
H         0.84444549187964    2.03965888505277    0.39012074080671
H         0.24203913309322    0.34098152016320    0.17973621263334
H         3.83564087476632    0.23931066238661    2.43909468109938
H         3.97090435552130   -1.12950030289076    1.14694064001058
H         2.39933965504083   -1.06604663764033    3.55893278298737
H         2.73711890733865   -2.32172803961237    2.35007990480941
H         0.13605656799808   -2.99794517883341    2.82881683993741
H        -1.04210760675230   -1.95682645924810    2.20874168182998
H        -0.13057263287537   -1.53706168671515    3.77928402555436
H         0.11714392514039   -1.57048305612559   -0.07945797611428
H         1.50527655083301   -2.60929909895272    0.34087078281728
H         1.77904843631189   -0.60463551342998   -1.44166760000561
H         4.50420104126176   -0.18016638116769   -1.60925846215129
H         5.21976878381106   -1.72354684739003   -1.77059661405424
H         2.74980481688298   -3.67285829806178   -0.50481019369505
H        -1.13572825367777    0.30813806669768    2.14557709477111
H         2.59997127211413    2.93948617903562    3.28527065852138
H         1.51255626008023    3.02814110110611    1.87537302481390
H         4.49844207328015    1.44907231385621    0.07165689039694
H         3.08738382782206    2.30945266533036   -0.41132946792161
