38
 energy: -53.126138900437 gnorm: 0.144095065025 xtb: 6.4.1 (79825abcba525fcdf90b791dcacef51065a7a4e7)
C         1.09176395466091    1.11314155408425   -0.12848640545046
C         2.48473027202061    0.36263316717400    0.32901869482764
C         3.26431548267767   -0.34026353721242    1.68808036052098
C         2.46468359980993   -1.31809890518675    2.61676175196636
C         1.04705993114547   -1.16067824437179    2.12543886684490
C        -0.07016339824887   -1.96129086926440    2.78096966820426
C         1.13535336427721   -1.64406074989523    0.49834476720363
C         2.25495683244243   -0.96137009264228   -0.39732559177530
C         3.46379785221434   -1.83473075202972   -0.69189952804639
N         4.51988081561716   -1.21393578067771   -1.30761723678238
N         3.63356272763480   -3.11093784435744   -0.50912503766037
C         0.66243867818632    0.41723461281025    2.36499339338856
N        -0.56742638671813    0.83122696364866    2.28326435093629
O         1.69913729639888    1.16127917590236    2.71963652245033
C         2.13258452442737    2.46832841511874    2.23216214805203
O         3.22216999177432    2.46734836039373    1.27704543847773
C         3.41696315659787    1.54081544244511    0.16732135699289
H         1.47007530343836    1.40985368938326   -1.11186883334705
H         0.88893729999699    2.04773918399398    0.41752903365831
H         0.17467919789653    0.53978752397404   -0.21063119095957
H         3.82612748237361    0.44777461106766    2.19612405347653
H         4.05476246346021   -0.99888723981640    1.29350764548508
H         2.52196442095303   -1.26400641759462    3.70796295587712
H         2.96672031049295   -2.27802000462245    2.44078914716345
H         0.36290362611464   -2.95974852814549    2.81290441410519
H        -0.99257163906131   -1.96479267216127    2.17460645315286
H        -0.19006440632335   -1.56728937457584    3.79615549919809
H         0.17542693320023   -1.51689402376216   -0.01389474557714
H         1.19561191384612   -2.73969604008494    0.37978073439788
H         1.82248717891483   -0.73443109620953   -1.38701571851335
H         4.48753013792505   -0.26485952122011   -1.62688719201149
H         5.34462950864215   -1.69514395655242   -1.64851717730533
H         2.87625699467848   -3.66071896306275   -0.10867164222938
H        -1.19734297048978    0.04450324523017    2.12818498128459
H         2.66780583563528    2.95267262437642    3.05556087700212
H         1.26152499787664    3.04941587771845    1.91432977927933
H         4.49970057801195    1.40153310826386    0.19852238470371
H         3.17534556079823    2.11343917484963   -0.73484151757229
