38
 energy: -53.128139723694 gnorm: 0.146922553167 xtb: 6.4.1 (79825abcba525fcdf90b791dcacef51065a7a4e7)
C         1.16520416832524    1.19427136564556   -0.04652744818030
C         2.50035814495182    0.33752292374246    0.39650176656328
C         3.20612251002708   -0.39367752270563    1.78073731408017
C         2.30136750972529   -1.36720499690520    2.61241328763138
C         0.94845040912656   -1.13782259604018    1.98564751526894
C        -0.05218774365482   -2.11403108302735    2.58949303363243
C         1.10254717793229   -1.59763529921346    0.35662448887828
C         2.24152343998979   -0.88144532247707   -0.48694462999425
C         3.46245788938026   -1.76228108191755   -0.69736500351772
N         4.23276334195460   -1.28101566524083   -1.72440884429852
N         3.81518639017393   -2.84921749211572   -0.07681441327347
C         0.71136876061397    0.46167704836076    2.26941145878038
N        -0.48820984704600    0.96322498879920    2.25950277987734
O         1.69080057374419    1.15885109564647    2.82509097804376
C         2.29595699328963    2.37278439756867    2.28283908672467
O         3.43321650177979    2.28004960264157    1.38981812247054
C         3.50179385099772    1.45044377026285    0.19192560680088
H         1.26389719909958    1.44900975846694   -1.10651169160159
H         1.02188376053832    2.17203919664417    0.43944947514939
H         0.22876009196305    0.64986478039016    0.01022662777877
H         3.61247885211408    0.38856067198683    2.42705238340969
H         4.17262414747348   -0.82530982077439    1.47439212608247
H         2.28779713088440   -0.97314608761961    3.63293304920347
H         2.55592869844511   -2.43098182963512    2.52278525932287
H         0.44534244211284   -3.08223101553444    2.61266988688485
H        -0.95638787664163   -2.29200178795389    1.98181375151547
H        -0.34231246135504   -1.89443427325997    3.62284707395415
H         0.21625595554391   -1.43742833464722   -0.26694671024239
H         1.22241707732412   -2.68335956559846    0.51454611894018
H         1.82647941006820   -0.57722514540455   -1.46326752630972
H         4.13539332437336   -0.31316787572818   -1.96423245033417
H         5.08114939779959   -1.79475217953787   -1.93488541593273
H         3.09588568843096   -3.21588631677473    0.54310062538006
H        -1.29409159517836    0.34025450461509    2.21216256902321
H         2.69415967534505    2.77290244826594    3.22112305250656
H         1.45621282231841    2.99914045036551    1.96671795107465
H         4.52801469398994    1.07751389247521    0.16984626634372
H         3.31229329723202    2.00546161325218   -0.73339573945587
