38
 energy: -53.131852048261 gnorm: 0.158401179674 xtb: 6.4.1 (79825abcba525fcdf90b791dcacef51065a7a4e7)
C         1.14702806359859    1.17564203480893   -0.12761109154502
C         2.52507032263309    0.37426857749429    0.28679089177806
C         3.22991512434271   -0.31448364569398    1.69309087885861
C         2.34636700202930   -1.29429816969379    2.54004335038731
C         0.93439264223554   -1.20098562153170    2.01711173544858
C        -0.12603863403022   -2.05594888404458    2.69785579292171
C         1.13026540143709   -1.65601428168633    0.39123586783241
C         2.28162301589393   -0.94646068314511   -0.44105804555078
C         3.51158143344332   -1.79869006710016   -0.70889495201811
N         4.22406303755410   -1.32003762047102   -1.77803840282877
N         3.86416855779491   -2.95387598183993   -0.22706616268407
C         0.62951950524744    0.38815202767823    2.29428087213419
N        -0.51685554729176    0.98828287694005    2.42197021363097
O         1.66755387786258    1.05835413581642    2.77117903192795
C         2.18071505245967    2.36210873901671    2.35792969270907
O         3.26293474844995    2.38524358853594    1.39475230674465
C         3.51306110751084    1.51698717019091    0.24956116848648
H         1.46137854849544    1.44485289327575   -1.14097570975631
H         0.89014073241091    2.10984194213921    0.39586160456476
H         0.22116639084074    0.61559876017029   -0.20283574425723
H         3.71118516722351    0.36078011919630    2.40523077124570
H         4.07769084264645   -0.78612706328687    1.17049346639027
H         2.46809070117213   -0.95983038553330    3.57456826610294
H         2.84387857515976   -2.26020872433547    2.38527007766100
H         0.26576415732557   -3.07072857385937    2.65098022071853
H        -1.11367950746006   -2.04602961783715    2.20491291836381
H        -0.25679028152868   -1.69498108565394    3.72392691581021
H         0.10402120341062   -1.72785897895551    0.01483101026020
H         1.48922881387278   -2.69748888657238    0.45891993366472
H         1.81379844129429   -0.84477612833709   -1.43545146131261
H         4.28929042568966   -0.32178416649616   -1.83245395007887
H         5.11381081638150   -1.78764466716629   -1.91099339887592
H         3.37017930911867   -3.19826553395203    0.62872735427431
H        -1.25696334920135    0.39284263467882    2.05120063693506
H         2.63768088247383    2.80448050417160    3.24929161721776
H         1.34943650866159    3.03006828237946    2.11251009475232
H         4.57263752090544    1.26241493921690    0.32156251690468
H         3.49018263484862    2.14326345149607   -0.64900960562560
