38
 energy: -53.130057939180 gnorm: 0.139555568051 xtb: 6.4.1 (79825abcba525fcdf90b791dcacef51065a7a4e7)
C         1.23894228205244    1.24711770168279   -0.03295741686392
C         2.56488007998666    0.36889728783501    0.39546613918220
C         3.27459902372150   -0.39480781149220    1.75998765950988
C         2.40159260460754   -1.39074193229429    2.59903310679892
C         0.99876231452935   -1.11741068931203    2.11613201302031
C        -0.05928129744523   -2.06387627262995    2.66716352844533
C         1.13119857465283   -1.59143813449280    0.48927979513725
C         2.23504759923354   -0.88698958879941   -0.40909283318468
C         3.37620634128009   -1.81200187275085   -0.80016601056525
N         4.14007920084509   -1.16666279640281   -1.73816475379562
N         3.70800861281848   -2.99560128731993   -0.37598346874271
C         0.64888994824067    0.45664613151223    2.42445521888493
N        -0.57147075304223    0.90299622380823    2.37831768105591
O         1.71889431691319    1.13635097547707    2.80813477636688
C         2.21743037733219    2.38279368601779    2.23217660192615
O         3.43602058596131    2.26952990254450    1.45651263799502
C         3.53809492634900    1.51063829857672    0.21491708419765
H         1.45951723000148    1.49670443794489   -1.07567104565182
H         0.82334815919905    2.20022973194360    0.32981414201174
H         0.42827532756718    0.52930451386331   -0.09691348715653
H         3.94626748185493    0.28397395292017    2.29183539861361
H         4.04499293152641   -0.99693627181184    1.25184026462950
H         2.45807749093188   -1.25019926781347    3.68253869647777
H         2.69091279479465   -2.43077243788277    2.40133108359817
H        -1.06536796229437   -1.88992885017020    2.28898834574868
H        -0.12657712681231   -1.89725701026273    3.75630762256008
H         0.28750176570845   -3.05518006305573    2.35527574103720
H         0.13698664427035   -1.56632072620203    0.03000735158572
H         1.39362962696535   -2.66278509801191    0.52736954562862
H         1.81867364326570   -0.61604852269787   -1.39460869007433
H         3.90522733084536   -0.29262594333481   -2.16785044377340
H         5.05333945907293   -1.55519702732217   -1.94548416310369
H         3.05173993701653   -3.34736521630752    0.31806821444900
H        -1.20849608471507    0.18239201527797    2.03963344347325
H         2.50969850138753    2.89141175016757    3.15679740864329
H         1.43121252745557    3.01771928988843    1.81246752243814
H         4.56766972626376    1.14990319468603    0.16452549364238
H         3.28068409472342    2.15987046319290   -0.62912800093191
