38
 energy: -53.129394315070 gnorm: 0.160284119576 xtb: 6.4.1 (79825abcba525fcdf90b791dcacef51065a7a4e7)
C         1.10202200664597    1.28171456340635   -0.05572462478759
C         2.44326423942397    0.39101767554379    0.29163286582821
C         3.32916739877351   -0.31676125225939    1.58124135118576
C         2.46132662953915   -1.30399610703356    2.43578333392457
C         1.03057135934323   -1.14989450256133    1.98298281428274
C         0.10874603359014   -2.10905086324808    2.72402684722048
C         1.00123185929389   -1.48995921664270    0.31793485878885
C         2.20089139962311   -0.87790705004591   -0.52350019395469
C         3.35572778434416   -1.81622575444482   -0.83453098899549
N         4.58838405339791   -1.21894694030442   -0.89471771134791
N         3.28490577206283   -3.11381698792479   -0.78792210004049
C         0.67658496620710    0.40104758078037    2.38844681247785
N        -0.54206296053182    0.84511905062270    2.47974350219803
O         1.70275398726430    1.09141015642976    2.86225551061006
C         2.33597875916837    2.31194126817318    2.36908654067078
O         3.40506874287337    2.26650211913709    1.39213861645728
C         3.37921175334828    1.56394803526057    0.11399765034905
H         1.21238701374440    1.35995058769460   -1.14195537876400
H         1.01778858854089    2.24544315038668    0.47046562450418
H         0.18600220818691    0.74332998687388    0.16239652945545
H         3.82255752179334    0.44944109750165    2.18476879324279
H         4.01038460820298   -0.89860388803831    0.93961724225104
H         2.62501827616380   -1.13282311305832    3.50388070610659
H         2.77939438774325   -2.34192201066066    2.27454301258711
H         0.57185625083251   -3.09410725721312    2.75005342567524
H        -0.81256663744153   -2.15484912224425    2.11771748037987
H        -0.16725382063226   -1.80338321226458    3.73921503014322
H         0.04538892198493   -1.18540886691356   -0.12210240112564
H         1.15059241168798   -2.58197211098471    0.37541941640602
H         1.78733908767730   -0.64443235495727   -1.51973404651757
H         4.70408856280643   -0.39817136258993   -1.45744813864011
H         5.33664627507304   -1.89967244719448   -0.96328095918572
H         2.38264366983982   -3.53193565037683   -0.57058813099877
H        -1.25303522738905    0.13868187869699    2.29201053704604
H         2.91094109356550    2.72536214904185    3.20427401026331
H         1.54789130955571    3.04438941702132    2.16943028348820
H         4.46161315432615    1.44515818826504    0.03039397319564
H         2.99006760762739    2.32636949576915   -0.56970930325173
