38
 energy: -53.127526204484 gnorm: 0.160429222138 xtb: 6.4.1 (79825abcba525fcdf90b791dcacef51065a7a4e7)
C         1.03337830463423    1.04992046273981    0.02517408315245
C         2.50972648219432    0.37020398678098    0.29221429233138
C         3.26726327929251   -0.29891047600484    1.68048274911597
C         2.41357987474863   -1.35809114562684    2.45983069772040
C         1.01001963390338   -1.13199408130410    1.95511785117196
C        -0.04278115734338   -1.93469707244912    2.70755890915412
C         1.09712114671108   -1.63893403378869    0.33514416326676
C         2.28320746594067   -0.94127657960171   -0.45749518326342
C         3.48964634819664   -1.81698804677683   -0.75492392533881
N         4.65217565560265   -1.27346627946074   -1.23753721882161
N         3.47665903415535   -3.11553512331236   -0.68755944774253
C         0.72279688002659    0.43939857152468    2.33374303400135
N        -0.45367194627884    0.98930054551477    2.26919635678617
O         1.74706106724958    1.10570269269285    2.84466352986695
C         2.20317750523747    2.41091192600537    2.37320608736369
O         3.22771985520688    2.35897244030940    1.34994628003442
C         3.37041774960227    1.59917912945783    0.11291491932364
H         1.12652985144742    1.09745077758161   -1.06444154742832
H         0.96497804709386    2.04394592875512    0.49419329137753
H         0.18198723979496    0.42699664511097    0.27741649140514
H         3.63132187006993    0.54105512682135    2.27769658314766
H         4.09186960606734   -0.82364811903275    1.17160747052232
H         2.39565358446079   -1.15416997552713    3.53455018005385
H         2.85220840839500   -2.35840698569285    2.35292441230793
H         0.03597236072617   -3.01802782449664    2.63221356292820
H        -1.01916031309868   -1.80271970934040    2.20977252069431
H        -0.15408433628561   -1.61687617109875    3.75006414422094
H         0.12863863234629   -1.45692841123805   -0.14332736315505
H         1.35301930276540   -2.71214780432589    0.36401530435049
H         1.84908264304973   -0.74300551998564   -1.45260425694223
H         4.91183003837887   -0.42019447394109   -0.78121228301415
H         5.40019259163379   -1.94092474850780   -1.08603030104768
H         2.66690646686337   -3.57961140614381   -0.28127364549984
H        -1.24062270183069    0.42365905551606    1.95212077715118
H         2.80848861314124    2.85922353980062    3.16797132796682
H         1.38690490093816    3.08468117824440    2.09543139879937
H         4.44447525638061    1.40148712976081    0.11634085454443
H         3.02304100900467    2.23584264758223   -0.70815986917708
