38
 energy: -53.122066675766 gnorm: 0.154956009435 xtb: 6.4.1 (79825abcba525fcdf90b791dcacef51065a7a4e7)
C         1.09266990519789    1.08571223762077   -0.12976051256494
C         2.51061528037544    0.35640702134565    0.28312409157667
C         3.20368699267412   -0.38098715483312    1.67048377978937
C         2.35315210185477   -1.35130184023009    2.56104657378738
C         0.98204478054185   -1.12262278719589    1.97486663773263
C        -0.23928444746253   -1.87562211780705    2.48500004841024
C         1.17466162090265   -1.70879853520446    0.39114118562781
C         2.34499962848881   -0.99462759255612   -0.41015315626171
C         3.54921094096161   -1.86690546359585   -0.72612094353876
N         4.48403341630538   -1.14379284545140   -1.42111805676886
N         3.82367312830848   -3.08110179427977   -0.35018355281669
C         0.69780226760432    0.44036042400629    2.38889381926338
N        -0.44313799569570    0.89684125298344    2.81376785379474
O         1.74766404387839    1.18209941790976    2.70784773256831
C         2.09640449384546    2.47338279775892    2.12060603157228
O         3.38997150775647    2.35715566705159    1.47825019773403
C         3.45734671409117    1.53410105660004    0.27577906279898
H         0.85953879072215    0.77414365247555   -1.15287998465009
H         1.32370481233096    2.15419152699005   -0.26287369237053
H         0.24086992266005    0.89899688068370    0.51529857060761
H         3.72360343888930    0.33942970804635    2.30721894291255
H         4.01750492763656   -0.97968176403449    1.23054699717848
H         2.28587012276568   -1.14168358825917    3.63270906125425
H         2.64804423445002   -2.39841631588103    2.41597542773679
H        -0.07156011512804   -2.93968677675729    2.32650866992580
H        -1.14840324013368   -1.58611891944216    1.92982755838806
H        -0.29253724228502   -1.65758434348740    3.55730568062034
H         0.19666603861861   -1.63742236252679   -0.09717174416861
H         1.38115053456914   -2.76208196250976    0.64816560918173
H         1.95673620013696   -0.88497111576354   -1.43740424917846
H         4.25057270703925   -0.27915176764748   -1.87013645055856
H         5.30352308495739   -1.65824407302340   -1.72403900862927
H         3.20573273922700   -3.44573333810193    0.37184669945457
H        -1.12440550603805    0.15850658870651    2.63908177106339
H         2.12483124884895    3.22421072356791    2.91715231000024
H         1.29127868537841    2.77190116029688    1.44231112942041
H         4.49193425996380    1.21220310151729    0.13901758481430
H         3.26303541983517    2.25498115218350   -0.52593775023388
