38
 energy: -53.126589723324 gnorm: 0.145828818469 xtb: 6.4.1 (79825abcba525fcdf90b791dcacef51065a7a4e7)
C         1.20265325270486    1.22420969615029   -0.15575781857377
C         2.58949260271651    0.45454404006300    0.28833711321037
C         3.36454263065071   -0.25846835758361    1.64472063634366
C         2.50303363507030   -1.33204280145894    2.39522875592539
C         1.05485531591861   -1.11658793955069    2.03164240184884
C         0.08782570905179   -2.19552475897786    2.50029817128517
C         1.03955363443499   -1.40734294479173    0.35709262382271
C         2.31596359211750   -0.87066312733675   -0.42043952621501
C         3.41090476622017   -1.90892891900644   -0.60466011340109
N         4.46912753272464   -1.41913010918922   -1.32581725391523
N         3.44284813366262   -3.12247554985132   -0.13859642319157
C         0.53851065078762    0.37906864772699    2.46928194717478
N        -0.69174079840253    0.77552814036371    2.61048599845684
O         1.61551539106943    1.11339123920021    2.70369435413801
C         2.09383181568871    2.39629375294237    2.19451855499836
O         3.28412395213557    2.40762596919399    1.36836991229878
C         3.54688042843960    1.61766410135616    0.17053251000455
H         0.98432561452431    1.08942441944155   -1.21988399916488
H         1.35024838519976    2.29374027943625    0.06118515364435
H         0.34809554565127    0.90299253555000    0.42997055223833
H         3.64790576912296    0.50040286033623    2.37859054567604
H         4.27945661813394   -0.72313530623099    1.24310358520106
H         2.64122089350135   -1.24331138362584    3.47687480438002
H         2.87176086145046   -2.31318620164457    2.06987727000980
H         0.54239716224240   -3.18433085853623    2.53364260090538
H        -0.89941922394477   -2.16606250291664    2.00734281376339
H        -0.24846633690830   -1.91136357346329    3.50348099410907
H         0.15607208678009   -0.92455001606248   -0.07463737084886
H         0.96892771858636   -2.50136089194904    0.22964881300474
H         2.09428469851683   -0.53401086265398   -1.44783505825793
H         4.46041585462008   -0.50443018900950   -1.73444150662732
H         5.24479623048366   -2.05316727261591   -1.48176414903193
H         2.56663858135200   -3.29844590611299    0.34866678608287
H        -1.38670618048193    0.06155819618244    2.39357876525601
H         2.59568619833216    2.77903335883301    3.08933093949625
H         1.28609855277262    2.98827627424695    1.75344212664665
H         4.58123502265558    1.27748281923861    0.25467922895636
H         3.47529245094364    2.30857452119884   -0.67663500546214
