38
 energy: -53.128084068065 gnorm: 0.146779928925 xtb: 6.4.1 (79825abcba525fcdf90b791dcacef51065a7a4e7)
C         1.17466879105998    1.11732997479830   -0.08118463980376
C         2.55458433993898    0.34628972888424    0.38169647238467
C         3.31140269282145   -0.32271101037121    1.77041151468861
C         2.32639124887635   -1.23895770564264    2.57556163953523
C         0.94681294408536   -1.04025962119218    1.99839696081260
C        -0.06140819336280   -2.00199600286578    2.61276038904506
C         1.15524653740095   -1.55126175119157    0.39081436548413
C         2.36993658845004   -0.93653648453438   -0.42677033856930
C         3.55748356079483   -1.81857723630732   -0.77686392790747
N         4.47725589655324   -1.28107684801270   -1.63995029969313
N         3.79675277421467   -3.04493888407277   -0.41669937366004
C         0.55790807151639    0.50285197526364    2.40174347399562
N        -0.67283503536280    0.87686388499481    2.59154300333879
O         1.54477619623714    1.20678678819898    2.93530242824523
C         2.13461659412676    2.35386691864953    2.24960500398090
O         3.28840637945006    2.28528631833408    1.37581371959517
C         3.53499582947225    1.47922181958897    0.18528911494221
H         1.11625551666271    0.90026149207761   -1.15247718774281
H         1.16102630643360    2.19825285386261    0.12896732994312
H         0.20424359242744    0.72912478026297    0.20881315290481
H         3.57953590626169    0.51437958283376    2.42012618887290
H         4.28409556864400   -0.74341728200634    1.46849425781883
H         2.49068027266256   -1.07028284159434    3.64396468222769
H         2.58597290265061   -2.29835341511990    2.45409630494981
H         0.37107905896504   -2.99628355199357    2.51360589990313
H        -1.03357858298253   -1.87652608875060    2.10515069225846
H        -0.19273436737088   -1.82390187810689    3.68572432683429
H         0.24508525686462   -1.26382838048161   -0.14678022690059
H         1.26544858549489   -2.64927854242127    0.40869832229614
H         1.93941616588730   -0.84571029641724   -1.43890699942734
H         4.26840050664459   -0.45613080791601   -2.16869321538502
H         5.19933945707123   -1.87505498817333   -2.03208520396828
H         3.07854947956374   -3.47432691600924    0.16290749217810
H        -1.34116918202719    0.16820494901222    2.29002899085524
H         2.60823942799609    2.86705647859802    3.09302335908903
H         1.29248902839415    2.88843288599980    1.79962151201426
H         4.56844198698389    1.18082910394927    0.37408591439459
H         3.35806745455492    2.05581616586332   -0.72926551042356
