38
 energy: -53.124961183684 gnorm: 0.171484350139 xtb: 6.4.1 (79825abcba525fcdf90b791dcacef51065a7a4e7)
C         1.13177565435620    1.11976999078812   -0.07062957149863
C         2.53685564983246    0.33028834635129    0.26907301946195
C         3.27738743823920   -0.31105653965872    1.67944704403201
C         2.36588025139068   -1.32586594153727    2.45232401365077
C         0.97384206103962   -1.01941836706972    1.95820272734806
C         0.06561522175080   -1.97474173322560    2.72067922165133
C         1.12742557376268   -1.61538244603179    0.37386424326334
C         2.29929142726141   -0.97602168151691   -0.48622415127074
C         3.53052943560713   -1.85135875750072   -0.65553808699963
N         4.56642313000525   -1.25062400223202   -1.32325653211290
N         3.62464367673566   -3.13198218985529   -0.45041057532115
C         0.61890016675486    0.52471962764331    2.38806648892933
N        -0.62000421504894    0.91279078626291    2.45985809082800
O         1.61644609520592    1.23206683161833    2.89667251325083
C         2.16016679363543    2.42370408677919    2.24994698465145
O         3.31273395598041    2.38039413389748    1.37293014027939
C         3.40595636854706    1.56232861586649    0.16878167058246
H         1.31458540045788    1.27515976290134   -1.13863386902306
H         0.95605593998817    2.11391194690901    0.36931200448145
H         0.20352032535173    0.56495381390872    0.01332348034212
H         3.64740135422302    0.43157181351033    2.39102140144951
H         4.04752861694349   -0.95176128430271    1.22047075221856
H         2.66845830218940   -1.17354906761886    3.49259957534563
H         2.74159744235144   -2.31629709742606    2.16537724697223
H         0.52054747189858   -2.96323188709346    2.68315024030609
H        -0.89201400128237   -2.28616066786608    2.26847343234106
H        -0.15971153010554   -1.76544855792625    3.77217335001565
H         0.16210956318400   -1.46574573281590   -0.12191119525386
H         1.22219398557607   -2.69200341386194    0.59749661811099
H         1.92097216940902   -0.80611264892692   -1.50897695567540
H         4.34113804390624   -0.40905839748221   -1.81796814750116
H         5.31033683543320   -1.89134735984060   -1.57633846947066
H         2.90406481941860   -3.64621133272172    0.05205202933590
H        -1.37825766554755    0.26466595553765    2.24828159732435
H         2.46542850937729    3.07600011168219    3.07478745631679
H         1.28881037973473    2.90882520850547    1.79959129826951
H         4.47387911272396    1.33533961964220    0.19543513517543
H         3.21892687733259    2.12347844992067   -0.75333853661771
