38
 energy: -53.131283819052 gnorm: 0.156054061068 xtb: 6.4.1 (79825abcba525fcdf90b791dcacef51065a7a4e7)
C         1.08264773231953    1.02702353405746   -0.04369341712575
C         2.53404363005831    0.33689277597760    0.31699812654035
C         3.32945978933304   -0.37235442314264    1.66352960553024
C         2.44854640324925   -1.30238490882142    2.56744176060769
C         1.05134738612466   -1.10276541440961    2.03469108688644
C        -0.01297280355649   -1.98043242957436    2.67952619549720
C         1.13339450058460   -1.68873519127286    0.44133071301514
C         2.19608564089142   -0.93171496706023   -0.46388294472324
C         3.34912249100736   -1.83246775255825   -0.87616887110762
N         4.36638590089344   -1.07931098528957   -1.40317547162186
N         3.57191323466453   -3.10422487789758   -0.72147802738237
C         0.71685206038315    0.47826874188695    2.32378057183695
N        -0.45979199153893    0.99134471960351    2.53090178711554
O         1.78343860115604    1.11146441895466    2.78808056720318
C         2.21559615036417    2.41914272390593    2.30114854008625
O         3.41686732620330    2.23094343710269    1.51312951826444
C         3.47573425758970    1.51631266836238    0.24280172401452
H         1.08369318573570    1.18946427111827   -1.12619536781170
H         0.91544976705084    2.02293721958022    0.39556164479237
H         0.12585355127999    0.55025581663618    0.14005775694345
H         3.81897300928860    0.42023173816972    2.23530685492133
H         4.08521672212977   -0.92908687948271    1.08632975414614
H         2.45195644515083   -1.14188060765052    3.64964040358893
H         2.67267888375376   -2.35903345038265    2.37324023780736
H        -0.51284667365022   -2.55838308999136    1.90390791627343
H        -0.81825049014230   -1.44126676793571    3.20806551143497
H         0.36282084053321   -2.64226529108981    3.46754402237560
H         0.11833972728303   -1.48944530894195    0.08082162559650
H         1.29351858117671   -2.77301353470018    0.57096852143716
H         1.66978084871617   -0.66910920676656   -1.39772411484177
H         4.26631938937432   -0.09657281545974   -1.57032211339926
H         5.22868320380349   -1.58373617571312   -1.57633169419383
H         2.75874937105362   -3.55688244702164   -0.30916766759214
H        -1.26658368819375    0.44777031479348    2.22529952372241
H         2.64514738626852    2.97809629589938    3.13905860357691
H         1.39598471175011    2.93041011301316    1.78707898900668
H         4.53556282472673    1.26941155180295    0.15062450026352
H         3.30739636529669    2.22849847482051   -0.57244582868435
