38
 energy: -53.117605565399 gnorm: 0.172958443777 xtb: 6.4.1 (79825abcba525fcdf90b791dcacef51065a7a4e7)
C         1.15307213705681    1.17364622443033   -0.21803071377606
C         2.53601231695193    0.45996525685898    0.32147354230923
C         3.26986962042563   -0.18487935453863    1.73373923044799
C         2.48776878808137   -1.20872958846621    2.62708757842667
C         1.06450242613356   -1.20480315061798    2.12695381651067
C         0.12061061384185   -2.13926385153747    2.87176294276878
C         1.14407983737770   -1.58460061942813    0.47216955853273
C         2.32566566331342   -0.90109689838124   -0.33929914975806
C         3.40290173030365   -1.92551523318094   -0.65703925962714
N         4.50830468314943   -1.40939071649129   -1.28274343805572
N         3.40927829972486   -3.22144562296216   -0.76406698471584
C         0.66352914875332    0.36812619997725    2.37239748809732
N        -0.48161154273609    0.88826588857866    2.04263256281677
O         1.62505658158760    1.08818872542201    2.93015466806278
C         1.99744276736513    2.35746709187791    2.31035917296074
O         3.08537496929389    2.50746709713157    1.36518780856835
C         3.45910768929202    1.65372081005503    0.24298627013446
H         1.53820930867822    1.40327512829178   -1.21659893400177
H         0.77972411922264    2.12078110005574    0.20183952746343
H         0.29285230348249    0.51922753926367   -0.30905315108293
H         3.75386870255512    0.60993527882909    2.30711504533796
H         4.11475756695992   -0.60675528699936    1.16587982949773
H         2.61910346839950   -1.01207727924875    3.69526651401460
H         2.86900526682909   -2.23230501821014    2.52028014444590
H         0.48832506792274   -3.14860175504657    2.69425900236427
H        -0.91970375527447   -2.03556549471680    2.51747740533980
H         0.29220785081183   -1.89449266070416    3.92573502848828
H         0.20009624808704   -1.25491008802358    0.02471163591754
H         1.24412467355208   -2.68215041737978    0.53116698550462
H         1.93438202025035   -0.79049383237120   -1.36530204340452
H         4.74136402392673   -0.45825104642620   -1.49426716456364
H         5.08167054577043   -2.06115081404679   -1.80661828222289
H         2.54638886287156   -3.51094098591711   -0.30827269070656
H        -1.16657744086983    0.34214710430817    1.52075641434605
H         2.43171262093949    2.98257081709715    3.09756414250247
H         1.14787259471734    2.87811508780223    1.85805291985671
H         4.51597521809265    1.46605358145135    0.44424588918427
H         3.42705803919567    2.18373257017398   -0.71525962810370
