38
 energy: -53.132262736387 gnorm: 0.148340592592 xtb: 6.4.1 (79825abcba525fcdf90b791dcacef51065a7a4e7)
C         1.12267276351990    1.25983519681005   -0.03996912505652
C         2.50345550796551    0.43277209706215    0.30979442541625
C         3.30552369292866   -0.37202524651811    1.59737096337303
C         2.42563798949917   -1.40007410531159    2.38916574213000
C         1.00055473361884   -1.10663820676724    1.99058152893943
C         0.05249358256600   -2.13052627828031    2.60027194563293
C         1.04858250141663   -1.46678595051906    0.33019709424343
C         2.25937583313325   -0.84629453346405   -0.48881068966263
C         3.34128759031881   -1.87565866311301   -0.77289815148976
N         4.46812580742799   -1.26817703659943   -1.26382342844116
N         3.36188804942207   -3.16622373162437   -0.61494693470996
C         0.70391774502219    0.42763147768494    2.49372346528058
N        -0.44826521007798    1.00192950789854    2.67618865790483
O         1.81334458912743    1.04707859427143    2.86732138202896
C         2.27356467135588    2.33882970890012    2.36387128430696
O         3.38414259728811    2.34762787363379    1.43328833066079
C         3.47429133758766    1.58481178781876    0.19317544145716
H         1.21500292876867    1.44432099321028   -1.11497549302310
H         0.90214107187807    2.20843221156837    0.47410646370808
H         0.22013392425574    0.66806844338426    0.06848737841139
H         3.72522704428637    0.27722813654524    2.37007037355970
H         4.13052475856465   -0.85910700678353    1.05294113770779
H         2.49357155340740   -1.07567819163062    3.43179678282957
H         2.83193429600416   -2.41365192716984    2.27944321501191
H         0.51531917557982   -3.11330701096044    2.67388620475182
H        -0.95110179026411   -2.16886504293266    2.14217585353825
H        -0.12145521558267   -1.91061193036254    3.65932585557786
H         0.08501764205102   -1.17294981958614   -0.10017777215865
H         1.07926674745963   -2.55362218949954    0.14059048283050
H         1.86333247341421   -0.76892231701469   -1.51603074878817
H         4.24370183864222   -0.37477669846615   -1.65777182956672
H         5.21307430752959   -1.79664755723191   -1.70399967491227
H         2.61896564544854   -3.60383041836939   -0.07392857881452
H        -1.30535815663920    0.56397846000757    2.33948512947564
H         2.72068418972059    2.81128678871812    3.24472602437214
H         1.39694443597644    2.92410435796265    2.06990649638165
H         4.51210102106234    1.29579252233097    0.01397633564438
H         3.12502818387805    2.20932996405746   -0.63638296608403
