38
 energy: -53.126757014325 gnorm: 0.164664649596 xtb: 6.4.1 (79825abcba525fcdf90b791dcacef51065a7a4e7)
C         1.28767448299013    1.23717001447140   -0.11537886533216
C         2.61733225351563    0.37001950963623    0.32392641052473
C         3.28863190652343   -0.37116774218071    1.71994349979623
C         2.34170236732326   -1.32780899584499    2.52379935359799
C         0.94815791599193   -1.16003620278713    1.97087760953333
C        -0.06458941270780   -2.05698826186374    2.66995485887734
C         1.11249403366206   -1.59686505572834    0.33653867664844
C         2.28783066234127   -0.89420251670303   -0.46760869286655
C         3.45917934976420   -1.81912931907801   -0.75619473182034
N         4.26071290911180   -1.38109226646727   -1.77867867371214
N         3.85140123443942   -2.89072119050050   -0.13266925957960
C         0.59937859517524    0.41144363893268    2.29326388945204
N        -0.63954358067857    0.80596829108822    2.28554985209998
O         1.51207541232189    1.18285228832656    2.86425536951792
C         2.16115489996299    2.40229614444352    2.38934700916608
O         3.23955942605832    2.41739410958700    1.42174115856701
C         3.60442704798453    1.51405390971278    0.33604173245191
H         1.43184814958528    1.48568495092786   -1.17162355274270
H         1.19960903745704    2.15957345958173    0.47973507607980
H         0.37000711984043    0.66263336650749   -0.04964215894456
H         3.65791450203254    0.41970858766175    2.37788744405803
H         4.06446842594474   -0.89380628235751    1.13752965122048
H         2.27777983289804   -0.97016960583809    3.55575630222694
H         2.63134718199249   -2.38595833129335    2.55349101586365
H         0.29700244361002   -3.07650888971267    2.54620679196044
H        -1.09803067190146   -1.86228704752574    2.33437153284429
H         0.11322897625923   -1.79601468173922    3.71899685621669
H         0.12570516958844   -1.57123480416352   -0.13844580902005
H         1.32168708590467   -2.67713901276411    0.42228049122244
H         1.78563864929498   -0.67002704793324   -1.42446102445456
H         3.80845878075092   -1.04817536269345   -2.60835219893183
H         5.14081023373092   -1.87657376904152   -1.86762399073380
H         3.39580594621147   -3.14074291847495    0.74257712917118
H        -1.27136068537376    0.09817065457025    1.91190781752409
H         2.69249723347955    2.66858668990513    3.30902156959171
H         1.40302113347561    3.14651570798159    2.12705866395084
H         4.68270032642195    1.37820184598683    0.44357934052346
H         3.55282857214358    2.24651414965841   -0.47698621064990
