38
 energy: -53.122378890404 gnorm: 0.153113938898 xtb: 6.4.1 (79825abcba525fcdf90b791dcacef51065a7a4e7)
C         1.07999340906154    1.14443758713639   -0.16849579989782
C         2.44146217141283    0.34855191023062    0.30679114388026
C         3.27935929077422   -0.39736580002448    1.60694522963311
C         2.46819348057364   -1.39248709248837    2.50681516866895
C         1.06299743843704   -1.13174888307089    2.02382867692552
C        -0.03621356957601   -2.01381933938313    2.60052271162939
C         1.15192335240223   -1.66376195406649    0.41201485017661
C         2.25790681521404   -0.95004030687566   -0.47635771509190
C         3.46707798688257   -1.84941032701589   -0.67602713520036
N         4.27641561826688   -1.22574839184026   -1.59026140827736
N         3.91724988473298   -2.90538463687910   -0.06513052314482
C         0.74859454645063    0.43130222421049    2.41517358832952
N        -0.40919989918420    1.00147129166805    2.25688081605824
O         1.73957506414685    1.11894575961143    2.96218550794304
C         2.04346856344230    2.40922069270246    2.34840637684917
O         3.21712793443205    2.28667401879693    1.50760237199383
C         3.40019952312747    1.51626369655934    0.28251140238475
H         1.27144802682944    1.30796634033307   -1.23376667359366
H         1.00416081319860    2.14588529221611    0.28327421352258
H         0.13402384320069    0.61716196994256   -0.22890320728771
H         3.78922160828990    0.35295118628146    2.21670753408630
H         4.11487484008075   -0.92110974057573    1.11512688792664
H         2.48735805322497   -1.13451622675799    3.56983488016217
H         2.71216957392456   -2.44738144946605    2.32756872316904
H         0.09836089383822   -3.05171389279213    2.30027420196076
H        -0.96128151832338   -1.56400977923048    2.19996532273912
H        -0.08098290598576   -1.78688896819646    3.67137004291886
H         0.13872711509550   -1.63533595151231   -0.00349060157687
H         1.27679448964239   -2.75133741738296    0.55234308066380
H         1.79917795220777   -0.74960546873433   -1.45992852579362
H         4.03830588002391   -0.54234466963850   -2.28307359027776
H         5.11811311199872   -1.71584350495244   -1.87192893727376
H         3.21140088820438   -3.19684664040062    0.60789345367778
H        -1.00507375039943    0.37697082130032    1.71400676569223
H         2.48752233683954    2.98781985058029    3.16515351940860
H         1.15706595374988    2.89162092406205    1.92531633765643
H         4.43677595782198    1.21927445473105    0.45571672470038
H         3.27838736067900    2.26912632682072   -0.50395824060617
