38
 energy: -53.122961731601 gnorm: 0.156996264764 xtb: 6.4.1 (79825abcba525fcdf90b791dcacef51065a7a4e7)
C         1.21418042358136    1.10917744309381   -0.18833121854359
C         2.53908390317240    0.33462506994833    0.40968911089870
C         3.23835053013683   -0.33772605288692    1.82667028169486
C         2.32319637579356   -1.27449158398856    2.68863634654279
C         0.95453252109760   -1.09996322970809    2.07860732474833
C         0.06142146031633   -2.05744484444311    2.85608448588159
C         1.14456813884095   -1.75793231363418    0.52301974701925
C         2.21189887730264   -0.95679350431260   -0.33766925487965
C         3.41425749423818   -1.78160468402251   -0.76761060587372
N         4.27215556621782   -0.97307231795814   -1.46767649627543
N         3.62869566196702   -3.06184438069678   -0.69057959763484
C         0.55813017846067    0.48828022917233    2.20301269285251
N        -0.63726144958141    0.95215610461317    1.98738484253162
O         1.54784826011271    1.19920270042531    2.72182422488206
C         2.27350393372323    2.39144109086227    2.29068977368192
O         3.46577331476934    2.18396246495453    1.49388885001229
C         3.57176754740422    1.42639322271006    0.25181428227086
H         1.42182105650226    1.20064417945421   -1.25918030511666
H         0.98840051196834    2.09894884653660    0.23842426368139
H         0.34510764065610    0.46022321490805   -0.19822941804552
H         3.77829020832706    0.34247084035191    2.49040408739587
H         3.97630332409128   -0.95351301692541    1.28767924942175
H         2.27928536190726   -0.81673599193019    3.68133912529204
H         2.72009014179258   -2.29574345564409    2.62558332772706
H         0.49797005239426   -3.01975245826971    3.11852293292672
H        -0.84905858111791   -2.20156172705744    2.24881025694679
H        -0.25761202723399   -1.54682925178769    3.77134676732555
H         0.22103956181617   -1.72231744484002   -0.06506697401282
H         1.44090771219067   -2.80088692305369    0.72925687091107
H         1.83464739326882   -0.78334779118745   -1.36022280752478
H         4.19924621169696    0.02575729082137   -1.49504913940508
H         5.21609856999919   -1.32560422136641   -1.58027026077072
H         2.80335581834642   -3.55651794762301   -0.35854588501060
H        -1.23702610256036    0.15364313894294    1.78137968932179
H         2.62381164727971    2.87286946918726    3.20968261692806
H         1.72257739844752    3.14381252206057    1.71811495265589
H         4.61445588502259    1.10170978076669    0.26048015400800
H         3.34295048330511    2.12161352875045   -0.56334602824093
