38
 energy: -53.125279556596 gnorm: 0.150894273930 xtb: 6.4.1 (79825abcba525fcdf90b791dcacef51065a7a4e7)
C         1.14853402073898    1.17547854300959    0.03669234294434
C         2.56854156750402    0.41811075871602    0.38726546744002
C         3.30669944394845   -0.32546981068938    1.74780814224603
C         2.34397753285678   -1.33713920696298    2.46034855120125
C         0.96726570830236   -1.11066353729516    1.88658062888012
C        -0.10071900495094   -1.98832218747819    2.52533967171245
C         1.10624024071619   -1.50556595514335    0.23927139323192
C         2.34863816120786   -0.82264175698143   -0.47617656935449
C         3.45546196997172   -1.79165526633777   -0.85929941949025
N         4.15144528341649   -1.45368729833861   -1.99119640800944
N         3.64416646615166   -2.97687870297735   -0.35873255432452
C         0.64142195746933    0.39521948243951    2.45338836725952
N        -0.49614119440287    1.01756811173524    2.54966725511499
O         1.74266032102621    0.97588674019818    2.90529287802770
C         2.22867189318808    2.30078272990073    2.52802791686936
O         3.36363028074054    2.29082826169154    1.62735275296432
C         3.53920591844381    1.57602047977206    0.36794090929630
H         1.19689189633794    1.42828189263497   -1.02723929993269
H         0.96603212936887    2.11876623773703    0.57487969267803
H         0.25408574075766    0.57827089689338    0.17751976779314
H         3.72275272505783    0.43344983194138    2.41540523539668
H         4.14257516518926   -0.82073676792895    1.22790270990185
H         2.34985002587479   -1.28504001493181    3.55313322769257
H         2.67323859234868   -2.37765947850453    2.34476113087941
H         0.21832438677392   -3.01650744556041    2.36245640951807
H        -1.02946447351911   -1.81878600644215    1.95331265002437
H        -0.28201845110916   -1.72341555187129    3.57279882696859
H         0.14413121855494   -1.22428850258567   -0.20259811632276
H         1.33092840190385   -2.58470757557594    0.18382947644557
H         1.96463648743810   -0.52484519453142   -1.46707403055005
H         4.55798144593413   -0.56721641774378   -2.22059418682870
H         4.70084738131015   -2.28877486804913   -2.16081533946534
H         3.04842109199050   -3.28640475313860    0.40639177986600
H        -1.20307880525815    0.33764392929210    2.27088231272319
H         2.80814437207285    2.60871224755344    3.40462799260767
H         1.51362684851783    2.98516842796164    2.06138934768087
H         4.59836056883911    1.31721555301783    0.30545224403379
H         3.36281463182173    2.33000062133037   -0.40702677304059
