38
 energy: -53.080502887584 gnorm: 0.165186006322 xtb: 6.4.1 (79825abcba525fcdf90b791dcacef51065a7a4e7)
C         1.39143457469022    1.37846907986207   -0.38957441413035
C         2.70109019922228    0.49756730048994    0.08132180972394
C         3.23152291113815   -0.03361162681388    1.62578148995014
C         2.48216375558582   -1.07250678000464    2.52976160694418
C         1.07379871232868   -1.03924264597537    1.99009715306875
C         0.35812098292848   -2.24142191443370    2.59131222645634
C         1.14051005410383   -1.33179865736231    0.31712070120370
C         2.44245459422777   -0.89845447257041   -0.48222731799065
C         3.40238349420292   -2.07379656798933   -0.57131738868603
N         4.74533687817469   -1.84486541122451   -0.72582569276874
N         3.10457961084938   -3.33084632652068   -0.71987744034792
C         0.38740404206362    0.36584894445895    2.48980585706629
N        -0.48154971762856    0.40710808107342    3.45616728097103
O         0.80781300440199    1.54874893771153    2.06776089520499
C         2.04156289816646    2.31836328849908    2.20718971805360
O         2.95788946406205    2.66184183518259    1.13863298612721
C         3.56760156452732    1.73015387147292    0.19624033184266
H         0.32706361598918    1.15184617866992   -0.27144265018641
H         1.53578213069538    1.32160475061070   -1.47983791338884
H         1.29160348526803    2.44154604677780   -0.19871264950779
H         3.63940670730251    0.80128969925993    2.20138191882767
H         4.17628745336571   -0.51700076707240    1.32907598041584
H         2.54515131403998   -0.88924427471415    3.60650419208639
H         2.80357495131007   -2.08611800149190    2.25820519019263
H         0.66231713434745   -3.20661178288119    2.18961858693240
H        -0.73219788405480   -2.10622323954577    2.48429979443959
H         0.58735893972866   -2.36830993055518    3.65506270722226
H         0.33660614985976   -0.78730040725632   -0.19010671185601
H         1.00048817713179   -2.42458079755616    0.25134593678829
H         2.08365963547128   -0.80668430086897   -1.52187263005486
H         5.13614634103071   -0.94155722416913   -0.91298323362597
H         5.17038349977756   -2.67222217439458   -1.12931135677324
H         2.16826131993288   -3.71779503420670   -0.62132302355898
H        -0.92062396146237   -0.50066274611870    3.60764219707423
H         2.58908121410289    1.89476525302656    3.05561474039845
H         1.58917451326582    3.28325698707173    2.45568450162508
H         4.62404342217892    1.50330596376926    0.35487225373349
H         3.54630116199812    2.36945371188420   -0.69315098642074
