38
 energy: -53.124017600794 gnorm: 0.161511036683 xtb: 6.4.1 (79825abcba525fcdf90b791dcacef51065a7a4e7)
C         1.09821632351808    1.16947053923476   -0.10603362096271
C         2.49353031102565    0.37884359985091    0.26938191767550
C         3.37369063690857   -0.30772494859223    1.57429835619380
C         2.50932789132665   -1.29570484584995    2.43150022368610
C         1.08994335826942   -1.14551142454063    1.94300684703228
C         0.09190386881150   -2.05621416565720    2.64545033671217
C         1.03639793303266   -1.44476197728458    0.27074144920682
C         2.30721776933939   -0.91516173414138   -0.52067775861594
C         3.49816853443332   -1.85745185275796   -0.58816730768665
N         4.56067282845625   -1.45689612937251   -1.35657192096914
N         3.66395983666327   -3.07625912954902   -0.16632227969686
C         0.65755850268353    0.39367460864734    2.31593919809986
N        -0.55005725533521    0.80263613333414    2.57099219295503
O         1.64011912279639    1.14471986478647    2.78988406393118
C         2.04844096928537    2.45102317645466    2.27926639126378
O         3.24952978971935    2.40307651370480    1.47023478457527
C         3.34616142864182    1.62601807186538    0.23948799721056
H         1.22230090546061    1.20421831143233   -1.19304520019408
H         1.09458403310723    2.21589294357428    0.23708618085067
H         0.13724298157692    0.75210988145677    0.17479973736288
H         3.78473072141257    0.48588509296652    2.20356331368555
H         4.15486581784294   -0.91628802928639    1.09087768183482
H         2.37574688749324   -1.07429851077721    3.49454420965038
H         2.83828784038893   -2.34173575320002    2.38610835692719
H         0.50759244712643   -3.05498316371394    2.76852777864039
H        -0.85328910918456   -2.01420647707158    2.07679300333234
H        -0.08569371621196   -1.61642189388398    3.63300162827586
H         0.07392564287736   -1.14450678885147   -0.15764312732217
H         1.00602591768206   -2.54116471253059    0.14792534505657
H         1.95493372588541   -0.81331473301605   -1.56161050455880
H         4.43669367449099   -0.80117747833635   -2.10382545139684
H         5.03146673985843   -2.30260313429503   -1.65842825910540
H         2.91020607066603   -3.39680716429015    0.43802728213766
H        -1.20431082100938    0.06552712966008    2.30945575063692
H         2.46640492856668    2.91930121247222    3.17651688194097
H         1.21300017627535    3.08864229616821    1.97446270227504
H         4.41237997552766    1.42594334497090    0.11362493647027
H         3.12518019802633    2.42961997112009   -0.47154373598013
