38
 energy: -53.133804884847 gnorm: 0.152221271551 xtb: 6.4.1 (79825abcba525fcdf90b791dcacef51065a7a4e7)
C         1.24175959495890    1.25658274921317   -0.01977295485682
C         2.51597451196548    0.28788676652835    0.36872844843169
C         3.23731989579141   -0.51947602855074    1.70165441267061
C         2.31226448173874   -1.52257890355496    2.47371618087721
C         0.92210177767985   -1.15687123410230    2.01595878751519
C        -0.18561165051009   -1.94279986530515    2.70456336567928
C         1.01091889995791   -1.60258245902602    0.37817292294011
C         2.19188601572909   -0.95276970937397   -0.46138878187309
C         3.42265208057444   -1.76466379859672   -0.83135107891464
N         4.22417147323859   -0.91212184529263   -1.54587525517233
N         3.90066044696796   -2.92912403501864   -0.50505136285924
C         0.69529113324430    0.42763511328301    2.38068517888379
N        -0.44110368097081    1.05285929081595    2.28936763159342
O         1.75061242136365    1.02188182600565    2.91667573647357
C         2.30030136617461    2.26117978936971    2.37273815470624
O         3.45859684475069    2.23406248296170    1.50264528101308
C         3.52192787549073    1.41324583009440    0.29842588299952
H         1.44231893263327    1.32553009274727   -1.09365413039459
H         1.26212982027761    2.26631330136674    0.41928683941365
H         0.25321758679737    0.83000243438050    0.11191224870113
H         3.70873908446512    0.22431106851343    2.34918042439855
H         4.02005974983487   -1.09952427301694    1.18673539697277
H         2.44942587747850   -1.36286023817670    3.54731007686964
H         2.47622181049310   -2.55789524168436    2.14861034897888
H         0.11660398824467   -2.98832916210045    2.67264541505144
H        -1.25074539287335   -1.84199399351112    2.43280274040981
H        -0.06802619614392   -1.68117606383774    3.76189129074932
H         0.09452987688501   -1.41572812113014   -0.19220944046226
H         1.06558655511883   -2.70475827266870    0.36014191729741
H         1.78019326170856   -0.68475659348362   -1.44966803660151
H         3.78484097987963   -0.18692844522294   -2.07955012892941
H         5.04748170725728   -1.28728354735436   -2.00347600128489
H         3.21271591327470   -3.40736629373623    0.07300645191270
H        -1.20825247172945    0.45283429995832    1.98732217777939
H         2.83264014792069    2.77028529142355    3.18296259337248
H         1.47716936628811    2.92647021149823    2.09476852632534
H         4.57471198140073    1.12682361121953    0.34639811327408
H         3.31275933100166    2.17129543750485   -0.46432188756391
