38
 energy: -53.130655375087 gnorm: 0.155909515678 xtb: 6.4.1 (79825abcba525fcdf90b791dcacef51065a7a4e7)
C         1.23299206761460    1.24220962092325   -0.01525021959549
C         2.57869671956285    0.34925572992398    0.30823277323569
C         3.32982734658406   -0.39377939243541    1.66195618075654
C         2.42163645959071   -1.39844461898356    2.45180386917716
C         1.00792583751376   -1.16142568795852    1.98161179233392
C        -0.00330860767070   -2.04977118944013    2.69374682145749
C         1.03526266920354   -1.60945815081685    0.34227987342898
C         2.19468695683821   -0.90150254731795   -0.48011784781742
C         3.39599287362751   -1.79002645590405   -0.75979376093324
N         4.24213919345481   -1.25409551614416   -1.69607382491584
N         3.63685914188254   -3.01379805276025   -0.39196541383346
C         0.71913920886102    0.39951143061132    2.40018839952733
N        -0.48703597368694    0.88461652969032    2.42144433327513
O         1.74000512796657    1.11003970899186    2.85527123176574
C         2.19555625411127    2.39741915650060    2.33660680548245
O         3.29319985166515    2.36707155996345    1.39124818648865
C         3.53095271147680    1.51975549032323    0.22788057174872
H         1.17257332391562    1.43048161250558   -1.09186611642347
H         1.12011859435373    2.23394161452157    0.45001472469060
H         0.35819498108006    0.64616966956553    0.22137923462300
H         3.70716558063161    0.25116078808893    2.45971131486940
H         4.14602045491068   -0.93607458207088    1.15794827101325
H         2.54380209592097   -1.04246574850070    3.47907294976667
H         2.68413974372198   -2.46079479107965    2.36837807265253
H        -0.23544445421261   -2.96722477698197    2.15534509661430
H        -0.96657195846143   -1.55260825046163    2.90226131287868
H         0.26969170032074   -2.18572176956973    3.74598441816498
H         0.04196546449498   -1.55694452543751   -0.11665629480422
H         1.30570924844859   -2.67546755710839    0.43495028152068
H         1.72415478611669   -0.64024668622221   -1.44363364906184
H         4.08501380646156   -0.26818198401170   -1.77980999446892
H         5.15917793694631   -1.66902060466795   -1.81798199629072
H         2.89702434364466   -3.33347826561936    0.22979274908775
H        -1.25297776290110    0.25272728873357    2.18943598718863
H         2.71136759890934    2.81921629227797    3.20555010840497
H         1.36269824016250    3.07478759462847    2.12460617565397
H         4.58340998487551    1.22872579665975    0.20974777925983
H         3.33381043394679    2.16677307196306   -0.63390711686805
