38
 energy: -53.123776256603 gnorm: 0.145168005997 xtb: 6.4.1 (79825abcba525fcdf90b791dcacef51065a7a4e7)
C         1.21828829617963    1.12925719401939    0.03343841430536
C         2.56862141244331    0.25579880581973    0.38924711589506
C         3.24240154005743   -0.57793765316961    1.73080193500875
C         2.30719805969647   -1.43045941738529    2.65634143536964
C         0.93154676855271   -1.17234494752562    2.09349444529354
C        -0.22080648082103   -1.87957914387056    2.79405915737729
C         1.15077307993923   -1.67102007470843    0.48347815237159
C         2.22237909488928   -0.96918465057616   -0.45507999493480
C         3.44937556887057   -1.71956154236135   -0.94726229416964
N         4.17066723993346   -0.92832695934772   -1.80370381643920
N         3.89300771602178   -2.89773662966972   -0.62164727050266
C         0.72154262110513    0.43629756761863    2.34508205457375
N        -0.42515354499942    1.04792788639362    2.38550002419954
O         1.80606591254055    1.05080456191409    2.79264038208362
C         2.23370263681229    2.36185548958114    2.31081284296316
O         3.39453896109565    2.26215104230365    1.44943984959320
C         3.56543033670658    1.38749259018188    0.29459618513070
H         1.25485798655562    1.03770478213432   -1.05673559858483
H         1.03580265151411    2.17818397148098    0.31485596767100
H         0.27758920190623    0.60520805946305    0.16376408654426
H         3.74594915601852    0.12042486547143    2.40420733169300
H         4.05072759213774   -1.07914644958281    1.17431476369055
H         2.43330901019717   -0.99035871852497    3.64998853763715
H         2.59703672337160   -2.48894086647978    2.66448366232161
H        -0.00807411168022   -2.94566101117878    2.73324014564358
H        -1.20396917447628   -1.72219938627694    2.31745838893967
H        -0.36223797428935   -1.53447477086464    3.82416390607363
H         0.19102894587867   -1.63994106461031   -0.04372648037293
H         1.35109186175633   -2.75621410665715    0.46527111089775
H         1.62105718600016   -0.71659075942671   -1.34537552648490
H         4.11185101678500    0.07089909902858   -1.76111795540036
H         4.98226489016900   -1.43324760949949   -2.14185893316310
H         3.14367365756752   -3.41920588435643   -0.17142236533257
H        -1.17120010639157    0.38415055267152    2.17911955325705
H         2.65506007876068    3.03636103479370    3.06349923460114
H         1.37026003133312    2.87645446467569    1.87828594792396
H         4.61171033673669    1.07787207275102    0.24848008902861
H         3.27770140498250    2.05266906504683   -0.52694333031681
