38
 energy: -53.121761466962 gnorm: 0.157285824527 xtb: 6.4.1 (79825abcba525fcdf90b791dcacef51065a7a4e7)
C         1.18462012304903    1.14084622851556   -0.12351516554110
C         2.56844718211758    0.35872096426045    0.30803047169761
C         3.25246429233180   -0.25444423364335    1.75889727915109
C         2.40918300939405   -1.31051407167319    2.55363965333964
C         1.01363332865783   -1.11506801707861    2.01505057013898
C         0.04100823383442   -2.06730900073635    2.69778526395794
C         1.15123943890473   -1.64191792593283    0.40496260787727
C         2.29098281740433   -0.93891899537698   -0.44860715468672
C         3.45490000631549   -1.86465063424127   -0.76348321220265
N         4.26084150175244   -1.33936226331122   -1.74038460877911
N         3.77422862979723   -2.95914377600108   -0.13814718731613
C         0.58035449030979    0.41991583651090    2.40392429916659
N        -0.61614273766647    0.90896347794759    2.26298419243746
O         1.56045909506151    1.15405034592586    2.90846321570992
C         2.18676340186812    2.33059853051321    2.31066498382164
O         3.30043650275417    2.32620355941683    1.38375708402881
C         3.50748184917615    1.53516989118007    0.17574503956078
H         1.08857773914210    1.18278930810808   -1.21310921498353
H         1.06813883675278    2.14921739664407    0.30352573817565
H         0.24635416449940    0.65795347619669    0.12748012985675
H         3.74784657838292    0.53978950567371    2.32328578431707
H         4.03751487265789   -0.85428540449621    1.27087535773720
H         2.47310760938473   -1.05002577777040    3.61429353169067
H         2.87465225812080   -2.27509634683645    2.31410857859482
H         0.37124446377274   -3.09664488398900    2.56779976708011
H        -1.02158990798894   -1.96696228097571    2.41610941293205
H        -0.01135642851103   -1.78608192268237    3.75532248041267
H         0.22266983935511   -1.35167648933245   -0.09856280792808
H         1.19625046443974   -2.74248797700075    0.47442310933461
H         1.85215015859640   -0.58960481669670   -1.39909299953986
H         4.25825281119811   -0.40920422534991   -2.11257398966082
H         5.18265593052193   -1.75127506109978   -1.64780763347312
H         3.20695073975434   -3.27918992377610    0.64409345852976
H        -1.30387962297361    0.32107151801038    1.79268670617875
H         2.50868744869507    2.95252698254498    3.15245268238483
H         1.31253509996916    2.82208934300071    1.87295914419256
H         4.53414949391394    1.16281778852261    0.17482147837408
H         3.49576304716903    2.22337853586309   -0.67654972327167
