38
 energy: -53.138630054368 gnorm: 0.145250897459 xtb: 6.4.1 (79825abcba525fcdf90b791dcacef51065a7a4e7)
C         1.11864842212055    1.05475544489787   -0.04573780704808
C         2.49679417234780    0.27108680347017    0.40092388206250
C         3.28321375632068   -0.46678000972536    1.73732288483898
C         2.35083021633540   -1.37905903463116    2.60705284358225
C         0.97462793492238   -1.12737631432864    2.04264217943888
C        -0.18003239728902   -1.88046086980247    2.68956746878761
C         1.12112330040694   -1.67641960704965    0.44077447392180
C         2.29457928025236   -1.01410242610927   -0.39954739988841
C         3.55126834180777   -1.77981528945356   -0.78065848544677
N         4.52517346587898   -1.08376656191962   -1.44911259189571
N         3.78615964507208   -3.04176734211168   -0.57272998955484
C         0.72326296823436    0.47557055272842    2.29265385852470
N        -0.48550016628103    0.95462219687019    2.29886609035780
O         1.63652577074624    1.23717478575339    2.87577316708935
C         2.19319691388575    2.44924975958868    2.28005764892501
O         3.34654679082059    2.29500394557886    1.41667032498289
C         3.40863599609013    1.46243195097639    0.22048306325542
H         1.32183743979992    1.41101635039019   -1.06062250593217
H         0.89701055425536    2.01684145729373    0.44212631223744
H         0.16349988846128    0.54273767012418   -0.09108243771392
H         3.76652288919919    0.30264933855665    2.34488851907599
H         4.03185636295957   -1.07226389759915    1.20140987897145
H         2.52567351180605   -1.18703777749398    3.66982507648319
H         2.63263969709279   -2.41815257690185    2.39415906172362
H         0.15925340254889   -2.85987565342940    3.02290872441804
H        -1.08924252991363   -2.04821541126809    2.08647467770237
H        -0.45031088369212   -1.35253878104857    3.61068825580722
H         0.18941676596778   -1.48429354136215   -0.10239212308023
H         1.23616300608268   -2.75371851978966    0.65124568407515
H         1.88426638367172   -0.75651396916169   -1.39116696991801
H         4.32670043838031   -0.17882650840738   -1.83044915364086
H         5.25805813774053   -1.69439502721827   -1.79262012467056
H         2.96356417854152   -3.53103617051050   -0.22619443549984
H        -1.16624365885579    0.22422628281909    2.09176990825999
H         2.62650617323312    3.00487688200897    3.11824510977046
H         1.41594483203935    3.07336759222138    1.82863668652106
H         4.44470779759931    1.13366222159945    0.11484646500038
H         3.20491643642170    2.12391144790396   -0.62870364726464
