38
 energy: -53.131961853586 gnorm: 0.152667115730 xtb: 6.4.1 (79825abcba525fcdf90b791dcacef51065a7a4e7)
C         1.13532519639883    1.18235382662537   -0.05392710510359
C         2.52786998041648    0.38027212878009    0.30720011653462
C         3.29151800470532   -0.43263664870405    1.61291312724927
C         2.40947467899738   -1.39646278195595    2.47955089175643
C         1.00156459855917   -1.13349442797876    2.00576495091879
C        -0.06311510021534   -1.96401317065233    2.70974285190917
C         1.03509645851407   -1.53544429368274    0.35464368243279
C         2.15739634476136   -0.84263883380085   -0.52981511541715
C         3.32487622468693   -1.78010727274875   -0.79244198812725
N         4.15779160686570   -1.27298332793201   -1.75622784736114
N         3.73371227031705   -2.93458862805877   -0.35545568024027
C         0.72132519441621    0.42466842427800    2.44018776782329
N        -0.41383708983822    1.03730286640454    2.27671616499614
O         1.80833611496088    0.98960594236639    2.94354739245563
C         2.29405041614718    2.30191793659706    2.52425714031963
O         3.35163784423542    2.27688364179096    1.53414225587277
C         3.51080299710532    1.52785483764615    0.29256364471765
H         1.49739575570090    1.65479053380107   -0.97257123188398
H         0.78150518729181    1.98955938136149    0.60635679296439
H         0.27437243482328    0.55438944189354   -0.25628355508211
H         3.77902182738237    0.25582696454994    2.30796931335977
H         4.05983575808018   -0.94030223478828    1.00773322421626
H         2.54666783160139   -1.19306114684986    3.54572768935524
H         2.70399998097701   -2.43797144790790    2.29797373499918
H         0.23480442842579   -3.01012371097701    2.75854088469624
H        -0.95787680580907   -1.95867401576839    2.06329211905160
H        -0.28072242560146   -1.62226833340030    3.72761966348003
H        -0.03247566906216   -1.45679726765302    0.12199841009658
H         1.26889297420877   -2.61401418646323    0.36610596802115
H         1.66445040120974   -0.59522972630663   -1.48574965925478
H         4.05562477333067   -0.30431978608583   -1.99070278986012
H         5.01332190720156   -1.76864270037334   -1.98066976777826
H         3.06979886260027   -3.37940826140593    0.27501133118898
H        -1.05992426379332    0.37049572835125    1.85514965531632
H         2.83979408422123    2.59018401967832    3.42874768418971
H         1.52859696961373    2.96195541818277    2.10490491223193
H         4.57668270724724    1.29062317496823    0.31031104285740
H         3.26042463536145    2.13938898604524   -0.58122780923964
