38
 energy: -53.129346166886 gnorm: 0.149473725137 xtb: 6.4.1 (79825abcba525fcdf90b791dcacef51065a7a4e7)
C         1.09443363106298    1.10484686584538   -0.10136298056598
C         2.50306249391970    0.35245665947420    0.30187715356478
C         3.26265825606961   -0.33229221633299    1.68136935623324
C         2.37537727761791   -1.21906359009265    2.62179015446008
C         0.97534400843468   -1.08017747526815    2.07731443356410
C        -0.07039916145727   -1.97170065455063    2.73343699430612
C         1.15202803017965   -1.62650754151613    0.47756576636784
C         2.29115705736378   -0.97768604654399   -0.41865940397684
C         3.48119253685312   -1.85172570980727   -0.78018319308127
N         4.39565033056121   -1.13720799031242   -1.51027722143603
N         3.78977125814855   -3.10742504637816   -0.64259867277996
C         0.65090047553475    0.49817702399660    2.39142004385268
N        -0.59313559150610    0.87617123867358    2.37992984934329
O         1.70138706115358    1.14748038765620    2.86996070894329
C         2.20659740726872    2.38786109480212    2.28677661186078
O         3.29063271236005    2.35979148030473    1.32577456739809
C         3.47966792110818    1.49732203139472    0.16460821533400
H         1.24659764422920    1.36509657854660   -1.15365322512291
H         0.83617518527576    1.97335924620617    0.52452283854402
H         0.24284689521557    0.43473080130083   -0.14902379311093
H         3.78140178662069    0.38672662561211    2.32063635177778
H         4.03917755270532   -0.88686207676111    1.13023480663008
H         2.34885360811402   -0.97570494330454    3.68809228207657
H         2.70583171679518   -2.26387654485601    2.56161133263678
H         0.03888988688060   -3.00225637301898    2.39952775332710
H        -1.10210592381206   -1.83906225976013    2.36395927728944
H        -0.07150541296640   -1.94540054634919    3.82866426526676
H         0.12120473369500   -1.48003784626829    0.13702296171091
H         1.46450218484596   -2.67346992569299    0.63356220572656
H         1.89361855321967   -0.79675028844070   -1.43218949364750
H         4.41995477579871   -0.13676330023582   -1.55766217162059
H         5.18141131953039   -1.76344521893178   -1.64589099154982
H         3.11737694845202   -3.69936715616500   -0.15925138429436
H        -1.22420482786183    0.13115851517980    2.08584417587944
H         2.62777802827216    3.03806244900392    3.06065109465406
H         1.30740637775596    2.92718239247418    1.97370667643933
H         4.52176646070050    1.19528015680245    0.28908607228987
H         3.42999162609743    2.12085953097324   -0.73478496710186
