38
 energy: -53.127002508515 gnorm: 0.152704393025 xtb: 6.4.1 (79825abcba525fcdf90b791dcacef51065a7a4e7)
C         1.09230878620406    1.05358290164802   -0.05923208207981
C         2.49863192102760    0.33637758213150    0.41066225135307
C         3.24027746836690   -0.36811626288604    1.78997939884519
C         2.35479434074061   -1.39293196069751    2.57972283801658
C         0.97574409189082   -1.15387582010607    2.01677624179424
C        -0.23418298284204   -1.90635667728361    2.55411989440359
C         1.17868666304713   -1.62278715982338    0.39571916868160
C         2.36687526588795   -0.94477740754596   -0.41070159436447
C         3.64223121019269   -1.70673645550796   -0.73274951742204
N         4.43885819921399   -1.22146833735618   -1.73759089987054
N         4.00093455863032   -2.82517946880356   -0.17476358471333
C         0.60404526544223    0.41558911117690    2.32296024399865
N        -0.53501409749899    1.04150850539806    2.36045744563362
O         1.71222140837583    1.01034529597535    2.73808529308063
C         2.19413666455373    2.32090990790915    2.30905898659724
O         3.38231739230249    2.28367312916683    1.48063556371778
C         3.42568390637077    1.51739961533418    0.24013590010839
H         1.15082123516362    1.21235774894958   -1.14069655263686
H         0.93784893307969    2.01966740187610    0.44630439963848
H         0.11884324008984    0.58256218160094    0.02462118114646
H         3.74822211432086    0.38755171629604    2.39471353807356
H         3.98481971569634   -0.87628940992091    1.15618436880860
H         2.37293618977455   -1.16500932213264    3.64960568404469
H         2.78963031635032   -2.38390453912003    2.39711190762801
H        -0.06966869848010   -2.98117049792214    2.49759674997028
H        -1.17123232681502   -1.54658139414215    2.09474439886207
H        -0.19451920585918   -1.62854863317785    3.61311242458316
H         0.19241613520705   -1.52056869425836   -0.06994301372111
H         1.30325034961613   -2.70972063039408    0.54120018435857
H         1.89666844561709   -0.73601870551669   -1.38709455141288
H         3.90175615106606   -0.83332265884888   -2.48898290487381
H         5.09541163926675   -1.94752844826762   -2.00170979024426
H         3.44876232902412   -3.11070614834938    0.63128512317501
H        -1.37598149429659    0.48835506777486    2.19744264174218
H         2.56113475392518    2.68996137927006    3.27246443070301
H         1.36888567090376    2.91926198497152    1.91111383293767
H         4.47313110163327    1.25061027600498    0.08402304463053
H         3.07805418924848    2.27957078291623   -0.46585527978991
