38
 energy: -53.131951524283 gnorm: 0.151645176175 xtb: 6.4.1 (79825abcba525fcdf90b791dcacef51065a7a4e7)
C         1.15057521588499    1.16306564607577   -0.04520190516513
C         2.54975649273834    0.39400435444201    0.35947744060293
C         3.32220069044644   -0.28686011460600    1.73374778760591
C         2.47104301859521   -1.33094793163073    2.53589085888452
C         1.06075973559134   -1.14197165089715    2.03466706561786
C        -0.02293818184058   -1.94592745670485    2.74045954703102
C         1.15089477608393   -1.67204816157117    0.42228245734237
C         2.29256820694600   -0.91634792898429   -0.38226881563251
C         3.48744726812925   -1.79819764009547   -0.70697533079124
N         4.21945434090749   -1.40020180213975   -1.79581455623007
N         3.91051628683886   -2.89086593278275   -0.14304293319625
C         0.54351909388535    0.40628314747351    2.20930385791722
N        -0.67455441435823    0.85913396939099    2.16617138746121
O         1.54004144287229    1.10539738935789    2.73112811339294
C         2.17837320047656    2.35448651353566    2.32345865603132
O         3.34468592895404    2.34293789606650    1.46379208451294
C         3.46123118135223    1.59102625995161    0.21922740282024
H         1.53127230556358    1.62682015714721   -0.96073456009884
H         0.90163840651430    1.96299532920751    0.66956183416203
H         0.25590180438430    0.57790858836139   -0.22871691572559
H         3.66655141701312    0.50790983221480    2.40046252170400
H         4.17362433940928   -0.78572293000898    1.24334704225335
H         2.59645713371244   -1.23361090056063    3.61835284357146
H         2.81886880539343   -2.33017735543649    2.24432010288094
H         0.10890295182081   -3.02587978354367    2.78295001536492
H        -1.00429143483629   -1.80331764769384    2.25555357600300
H        -0.14094635926726   -1.65587307861618    3.79029678119073
H         0.15475855757747   -1.59641649231984   -0.02717490117134
H         1.36560637502344   -2.75326252187613    0.47686855596765
H         1.70915904255561   -0.76748401458977   -1.30719644258874
H         4.22694794857826   -0.43185684892430   -2.05267543577596
H         4.95004163952591   -2.05252484700197   -2.05792394062463
H         3.35773219686356   -3.30744009028274    0.60330141639423
H        -1.37510661257526    0.19249420957561    1.84275716018108
H         2.61655866282163    2.64935783723941    3.28266720052060
H         1.51451339943306    3.15360546350966    1.97976720522513
H         4.52507971804108    1.34447927674329    0.23081483293472
H         3.15124047554390    2.19019357568243   -0.64395226170254
