38
 energy: -53.128312194099 gnorm: 0.142019926306 xtb: 6.4.1 (79825abcba525fcdf90b791dcacef51065a7a4e7)
C         1.18379356842798    1.19463027160959   -0.18285331834549
C         2.50021573254824    0.36285610515800    0.35390855510535
C         3.26230912083881   -0.36360677490659    1.71049648209157
C         2.42267534457285   -1.25478545393821    2.68969919031058
C         1.02094702798015   -1.13305851266460    2.14547814218303
C         0.01223903748326   -2.05180204302932    2.82172338782926
C         1.18585247022807   -1.63076413439737    0.52869589156607
C         2.25799918629907   -0.93525385111692   -0.41394437432602
C         3.40259883855876   -1.86094461265676   -0.79317709858599
N         4.30943409898810   -1.12538172864279   -1.51178892611968
N         3.65117368455271   -3.12524536665021   -0.61800493812513
C         0.60669726192963    0.45021795641575    2.27494450022967
N        -0.48274653354175    1.04289515343972    1.88445340633387
O         1.58643084743412    1.11767083992777    2.86549238947959
C         2.13414267743516    2.36612012214891    2.34082905783335
O         3.30060617500664    2.24905117387786    1.48929917431588
C         3.50600303162170    1.48685531626567    0.26261063971740
H         1.48442461128010    1.53327747616024   -1.17941621368684
H         0.93671359286834    2.04560575848880    0.47100939037676
H         0.34700768171383    0.52197956850020   -0.33731195824301
H         3.78497872234080    0.31054445599624    2.39393033735621
H         3.92141795385682   -1.06989237679286    1.18038759642482
H         2.52266979436211   -0.94918346628093    3.73542175530848
H         2.75565899608126   -2.29890270873054    2.63141739230722
H         0.32387866426932   -3.08448051876029    2.96984649945258
H        -0.90283181017066   -2.04246781856158    2.20440355045468
H        -0.30803461494415   -1.69486847783000    3.80673044391793
H         0.16961261094512   -1.47676113962977    0.14980399970776
H         1.43000237284805   -2.70446514041460    0.60394332784287
H         1.79746163239022   -0.73927029094647   -1.39756698604769
H         4.45197712639064   -0.13882692568491   -1.41120702767932
H         5.08684863175255   -1.66575783032424   -1.87456268371371
H         3.08009244516961   -3.61379249990232    0.06852407350196
H        -1.14110200282654    0.31205556374810    1.61571508131703
H         2.44138515884593    2.97129525280440    3.20013211469290
H         1.43632007892754    2.98158390646717    1.76491873346093
H         4.56979396735705    1.24021217325868    0.27708107951834
H         3.27867634221199    2.12447307506919   -0.59874934062888
