38
 energy: -53.091389156315 gnorm: 0.150279963146 xtb: 6.4.1 (79825abcba525fcdf90b791dcacef51065a7a4e7)
C         1.23960482067533    1.11947394802298   -0.17161598160769
C         2.65432839138800    0.37685120265033    0.22838104947730
C         3.34502899393697   -0.25889421167524    1.66630523690771
C         2.41389600545258   -1.17567576352820    2.53263383358344
C         1.04420094412707   -1.03892888506631    1.91532351534692
C         0.15713393685443   -2.04867223350055    2.63115846137430
C         1.17947812680173   -1.55368880397120    0.30113274177631
C         2.38614176402734   -0.92765393598615   -0.51974914858715
C         3.48927491104872   -1.95150758442251   -0.73340840009242
N         4.76997343984082   -1.46580486968700   -0.79431893508981
N         3.21305363771484   -3.20583404467578   -0.93662785143791
C         0.48939206282459    0.41827245082379    2.42901617477181
N        -0.47184732138900    0.51664849466473    3.29906120514097
O         0.89856460436128    1.63634710771522    2.10809563726538
C         2.10323456256588    2.46037447631481    2.16838341128900
O         3.16864636828640    2.52135992008469    1.18826923197074
C         3.59588383310925    1.55771664259584    0.17992656523672
H         0.35682485869923    0.74608133990414    0.35703897359464
H         1.04777569083874    0.79817717060145   -1.20733516094950
H         1.16342804426830    2.20080404512857   -0.13354513359668
H         3.82734395605915    0.57409428346434    2.18423157453433
H         4.19780221724061   -0.80223430612491    1.22831138201827
H         2.40964053443745   -0.89652124201390    3.59045319818524
H         2.75493567087459   -2.20563531193696    2.36731289143674
H         0.48088990182595   -3.08704393250402    2.58165235949771
H        -0.85579474692844   -1.81544929563526    2.25952944947606
H         0.16008363140565   -1.87170159369616    3.71230988074195
H         0.21606070359927   -1.39661551015555   -0.19603351787560
H         1.15237039923009   -2.64073771391026    0.49006409857661
H         1.90194202679216   -0.77229990976619   -1.49925597113750
H         5.04037075312603   -0.50215875555679   -0.83900767541084
H         5.54807788442852   -2.10340391674339   -0.92083146675806
H         2.20030922404622   -3.30674039007844   -0.91928284795953
H        -0.99883752074539   -0.32588487293107    3.52752907540770
H         2.55561142271480    2.17239944039298    3.12308869226073
H         1.52744359341239    3.39087900755314    2.17551288179591
H         4.65846032312753    1.36869090382213    0.34694115869079
H         3.47673376078722    2.14828768221898   -0.73506194128399
