38
 energy: -53.127420587274 gnorm: 0.142196191992 xtb: 6.4.1 (79825abcba525fcdf90b791dcacef51065a7a4e7)
C         1.20717722762040    1.25428664184624   -0.12829963271978
C         2.57170715239091    0.47044780616474    0.35809904667158
C         3.26862317111684   -0.34320362904937    1.70016644251346
C         2.38408632349568   -1.39224454742665    2.45853970323495
C         0.98460227165813   -1.12655663701466    1.96186010410702
C         0.03897231613066   -2.16761781716850    2.54569634791096
C         1.10659177552357   -1.46658699190764    0.30102071608673
C         2.36625848902461   -0.82593218952170   -0.42327552455326
C         3.43406880807518   -1.87701508801583   -0.67985904850795
N         4.48402962468905   -1.50566720096460   -1.47953957753564
N         3.61147099851027   -3.06802374769410   -0.18898431526565
C         0.63764001607960    0.38921782112210    2.48833307356465
N        -0.59069006105178    0.78567160841969    2.64539030639441
O         1.63805954087696    1.19457372265909    2.81187705065510
C         2.01112874304278    2.45359342078398    2.17189717504458
O         3.27475720115191    2.43684116226164    1.46308982385510
C         3.53371708645963    1.63267273274332    0.27391024157399
H         0.80119605838886    0.91374901053715   -1.08611588174500
H         1.56475981085882    2.28395580566472   -0.28533579419067
H         0.36877234695816    1.39401005532564    0.54555619923155
H         3.54375522787094    0.41901482021158    2.43369942050370
H         4.20765197346394   -0.77902296058797    1.32258776860626
H         2.45470259350843   -1.12009960818160    3.51583703118525
H         2.78268699328459   -2.38879637613647    2.22950326487182
H         0.57294580645907   -3.11471635536118    2.48772018901594
H        -0.95666289617063   -2.24491316592947    2.07531190969603
H        -0.21458563676707   -1.86497101409169    3.56762050073331
H         0.22192296244399   -1.13833553669977   -0.25542471129332
H         1.16800180823782   -2.55593012860873    0.13469108561723
H         2.02261040503062   -0.53677593994060   -1.43139878826179
H         4.44696822912483   -0.73169457454233   -2.11461315222753
H         4.92195030398544   -2.34915569758880   -1.83272101463299
H         2.86242395996573   -3.39859525165365    0.41581746288226
H        -1.22206846024655    0.05856342117196    2.31004910566908
H         2.34638221508872    3.10436099595889    2.98623328734240
H         1.19366566203733    2.87244494390489    1.57713481694074
H         4.55512500438959    1.27743220608778    0.42630261715503
H         3.47983275893083    2.32229354796959   -0.57561577779363
