38
 energy: -53.134097891680 gnorm: 0.158077247006 xtb: 6.4.1 (79825abcba525fcdf90b791dcacef51065a7a4e7)
C         1.18431316667212    1.16301873109587    0.07091396627782
C         2.57963803301592    0.33225059375619    0.34627144319769
C         3.27785095811338   -0.41839687259056    1.72391166230603
C         2.31177750447510   -1.34789935929962    2.53677665144036
C         0.94996804465179   -1.07440557121769    1.94812357319266
C        -0.08989532254258   -2.00630080335461    2.55569628585979
C         1.15213780360444   -1.62035408090538    0.35126504882159
C         2.26059317700347   -0.88657077631006   -0.51746539113435
C         3.39301933678100   -1.81999915002708   -0.91388906101165
N         4.57666349240726   -1.16179112184403   -1.12732437850858
N         3.41077009248475   -3.11862018546995   -0.97869254723267
C         0.63897388965202    0.46635412826119    2.42190724137807
N        -0.54206005604117    0.93828795469987    2.69223041909397
O         1.73260708291570    1.11807538058512    2.78707007590038
C         2.29330676826722    2.36374702319766    2.26957275552856
O         3.48117254349416    2.28394816366514    1.44370811243217
C         3.50643085567930    1.51709836887603    0.20306369702937
H         1.23836989214035    1.44027003416027   -0.98663421080349
H         0.99229471743200    1.99360736139040    0.76804787320815
H         0.27898174680754    0.58348884768081    0.21599049557608
H         3.70051796393300    0.34861166724037    2.37797262332630
H         4.08155540842287   -0.97385561867979    1.21420196515542
H         2.35808120964961   -0.95262830748744    3.55586640594100
H         2.61298259782596   -2.38583224431374    2.34591923580769
H         0.03205138805889   -3.07827202883317    2.40909735876932
H        -1.09665273584371   -1.73896688553589    2.19032297257895
H        -0.15207023958491   -1.77422114487511    3.62456905932943
H         0.15327758426722   -1.61995276942968   -0.09850993181843
H         1.46824697312835   -2.64136386595379    0.62643631635712
H         1.84594630505754   -0.61281248405135   -1.50293087481908
H         4.45339510542335   -0.21576422002496   -1.43320610666165
H         5.22449179293845   -1.78256503055001   -1.59949250849078
H         2.54481738623971   -3.56021341171620   -0.67660727391319
H        -1.33599203496589    0.33768483510412    2.47148935918972
H         2.66188854257722    2.89364111688907    3.15410446850237
H         1.51621625292517    3.07686808646415    1.97800214148032
H         4.56478749368597    1.27215396228184    0.09091709056609
H         3.24278178468547    2.16753869027093   -0.63812082687832
