38
 energy: -53.125649520707 gnorm: 0.138014878189 xtb: 6.4.1 (79825abcba525fcdf90b791dcacef51065a7a4e7)
C         1.18268149493816    1.21748701153201   -0.01947719888535
C         2.55058876576011    0.38257780380143    0.36089787194342
C         3.36479318726874   -0.44057722432626    1.62910622103432
C         2.45035899549116   -1.37749390220286    2.49167187872545
C         1.02909097705672   -1.13158581591809    2.04967332030723
C         0.02660253579058   -2.03170182506973    2.75938963167060
C         1.06042895916212   -1.46456845638957    0.38323099118620
C         2.26374351260160   -0.86978411387841   -0.46533809482574
C         3.39202257742565   -1.82570202769018   -0.81752625476920
N         4.41721947581257   -1.21074493670621   -1.48879743561161
N         3.51454563785567   -3.11134737152889   -0.66575244708490
C         0.63360658371822    0.42077379040544    2.40870057690367
N        -0.58119696459730    0.84469229288055    2.59627138251101
O         1.66597263841367    1.13138586848774    2.83691649982852
C         2.15455684064752    2.37302765730530    2.24236068340159
O         3.32586411306070    2.34129532549274    1.39002406867549
C         3.52647346711191    1.52470051209050    0.19804086629872
H         0.83398234856469    0.91827317957250   -1.01299546310089
H         1.34131317760173    2.29506839860099   -0.18195358891037
H         0.23785446706141    1.14514127740007    0.50834382163917
H         3.90322829155118    0.15677549856427    2.36937819240575
H         4.14127431639726   -1.03197159162453    1.11762896158108
H         2.48295219160676   -1.11951883967137    3.55436360731078
H         2.68967965836517   -2.44633511243208    2.42268044624768
H        -0.19283361185099   -2.92998880419697    2.18457414784841
H        -0.90906505304784   -1.50877323448869    3.02320285955440
H         0.53324062510287   -2.20563325260792    3.71504720829737
H         0.19002053870569   -1.09263673023044   -0.16819934390289
H         1.10417022178163   -2.54954329064104    0.18569235878870
H         1.75204106720699   -0.66632408039574   -1.42178070481787
H         4.52710416728563   -0.22038941206718   -1.38464896420962
H         5.23265444460443   -1.74635553003319   -1.76478944070030
H         2.77225460533143   -3.57360741646853   -0.14474012167795
H        -1.26627815717902    0.15421207086122    2.29020024447527
H         2.51249530478104    2.82480648175599    3.17338838639148
H         1.30816843485981    2.94507967492501    1.85017717422946
H         4.55734738533744    1.18789473487155    0.32670411796744
H         3.32310523438332    2.10619245349552   -0.70787487564724
