38
 energy: -53.122357509116 gnorm: 0.156339716213 xtb: 6.4.1 (79825abcba525fcdf90b791dcacef51065a7a4e7)
C         1.23356920966672    1.18498650495461   -0.08767421584484
C         2.58227332270921    0.32036564200246    0.29489197847960
C         3.29524540025967   -0.25426785776864    1.74759037168311
C         2.50341234276988   -1.36591483420281    2.51912369666502
C         1.09373885282765   -1.14604437842425    2.02890549297657
C         0.05880443067929   -2.12756246692686    2.56221789277411
C         1.06473671512316   -1.43631303864033    0.35445259319505
C         2.26067103523700   -0.91161175828535   -0.54900382759564
C         3.41942741303728   -1.88625187509914   -0.68387250580343
N         4.52012439921056   -1.28514252889914   -1.23789382778768
N         3.53579425537329   -3.13737317524899   -0.34908090037681
C         0.61633928113316    0.38090982764321    2.39718429037617
N        -0.60264116612768    0.83282937186901    2.37498699484139
O         1.63782276319337    1.14445693595256    2.75451516089660
C         2.02695134043716    2.40486373198355    2.12694913252454
O         3.25096854282928    2.36023527828650    1.35284606377757
C         3.49933555343761    1.51665076296828    0.18898432153407
H         0.95239032924362    0.92305125890960   -1.11262637280681
H         1.42635170775657    2.26922507930058   -0.09009547824946
H         0.32689012812262    0.94521303680087    0.45727421173129
H         3.61979472957695    0.63262630573932    2.29789183982944
H         4.26314449466896   -0.64953771098240    1.39943477716651
H         2.49877452383152   -1.14113188861269    3.58981425388079
H         2.90542768312418   -2.36078806439281    2.28876172639802
H         0.05131537275099   -3.15498405812315    2.20189395989002
H        -0.96096612419148   -1.71083165879012    2.49201095981197
H         0.33573684328851   -2.12074031380648    3.62216015375616
H         0.09597483147623   -1.10151950152945   -0.03211322993224
H         1.12232880267888   -2.53522367471174    0.26969543881719
H         1.93110172369401   -0.70646391917389   -1.58211382649748
H         4.39603025134024   -0.29379311666929   -1.16337797904254
H         5.42527209216633   -1.74196948951064   -1.23902085458481
H         2.71340460919170   -3.52062348859813    0.11236101807628
H        -1.41438017297744    0.21600042247607    2.35547979404920
H         2.36940468644592    2.97432589881089    2.99727963075951
H         1.16152947992415    2.87762369858392    1.65264146601696
H         4.54926900180313    1.25144721214134    0.33040650014306
H         3.29970281632101    2.14790212244403   -0.68385205710414
