38
 energy: -53.127867077628 gnorm: 0.147514085380 xtb: 6.4.1 (79825abcba525fcdf90b791dcacef51065a7a4e7)
C         1.13312638530957    1.11592717810340   -0.12578538280878
C         2.49853339713613    0.32692250471876    0.34967672994482
C         3.25874166900684   -0.32360933183361    1.74529744733025
C         2.39771616823385   -1.30647224259217    2.61169104584713
C         1.01502641905094   -1.17298500784910    2.02331486863561
C        -0.15019033516088   -1.90915582697283    2.67078039914896
C         1.12580436821369   -1.69527467471442    0.40967570950858
C         2.28770669174178   -0.98370441222548   -0.40607829351949
C         3.47405053721671   -1.87177151845943   -0.74483239171129
N         4.31438783781948   -1.08741656985335   -1.49211176326081
N         3.80803019949170   -3.09725107696310   -0.46628510199355
C         0.67395440337744    0.41137901024712    2.28521066342769
N        -0.47876563187825    1.01258307026606    2.26453253635753
O         1.69578794429366    1.03214602063726    2.85496730821416
C         2.23583390761971    2.31030618801130    2.39830284348417
O         3.28124178928200    2.30068523456254    1.39507047788948
C         3.45412261823174    1.48739815769101    0.19649986602075
H         1.13119648053229    1.17894547379028   -1.21859072973299
H         1.15520956497352    2.17915446802564    0.16022913188698
H         0.21563080517903    0.62740144196695    0.18416868792800
H         3.76199190468043    0.39833724459852    2.39358563423860
H         4.10290981911761   -0.87969251375802    1.30662802089420
H         2.46835291921141   -0.92825933755534    3.63584562967780
H         2.88610294778523   -2.27325070644085    2.43484792062192
H        -0.05009588773226   -2.97725406599598    2.85687664778389
H        -1.07272027310714   -1.73122052386304    2.09129518121537
H        -0.40415804947371   -1.38778235975100    3.60023497368933
H         0.16847365613403   -1.53167075708120   -0.09705016227355
H         1.24048444534388   -2.77635849082424    0.59996883605266
H         1.87900935522868   -0.73241830785447   -1.39997951411598
H         4.25862442820553   -0.08955704017573   -1.42216591164874
H         5.19955934168555   -1.47969932136572   -1.79306049532605
H         3.03050031470777   -3.68801204612801   -0.17891264509652
H        -1.11192807095201    0.36989747463306    1.78930703518618
H         2.72130851962874    2.74499407871266    3.27830140653705
H         1.45684491534647    3.00076123375180    2.06085249798964
H         4.51772701044166    1.23982848903723    0.18431977823951
H         3.24480904705017    2.03410736487116   -0.72949782453399
