38
 energy: -53.111062460703 gnorm: 0.139864773962 xtb: 6.4.1 (79825abcba525fcdf90b791dcacef51065a7a4e7)
C         1.03626779225533    0.91100553878130   -0.01396659783570
C         2.53785235915256    0.31585451335387    0.30847400010833
C         3.27902712781738   -0.43948227510152    1.66087621903204
C         2.37006193704966   -1.17370653252371    2.70620835987300
C         1.00716984540650   -1.06698599085257    2.06826467657655
C        -0.11476877511787   -1.98845165802290    2.52765979924170
C         1.27547038924826   -1.61995464875521    0.48361014668126
C         2.38167047747668   -0.99117785509953   -0.46652926554063
C         3.58281972583818   -1.87077495566572   -0.77374032748627
N         4.58052398961692   -1.20618917365044   -1.43911078056180
N         3.68320856253523   -3.16171146311023   -0.65400661603623
C         0.62905072119363    0.49003538753309    2.42581062095117
N        -0.46279343469386    1.19530779220916    2.45904470128054
O         1.58232615349423    1.21185354097195    2.99533899322165
C         2.11615260140261    2.36745649636483    2.27875222003019
O         3.23681956230067    2.32300646864488    1.36137818339010
C         3.38930438923779    1.55174645737914    0.13263837284434
H         1.01895046576847    0.83973595106373   -1.10612927672514
H         0.86668708352165    1.98275081294734    0.17404586200166
H         0.29045506580489    0.30630760325866    0.49064299888249
H         3.87824267809879    0.30291936958531    2.19428577776694
H         3.99690178512822   -1.16906950904223    1.25266343996017
H         2.39410723119845   -0.76313682022500    3.72000394318117
H         2.63004234731170   -2.22258045014295    2.89785755307991
H         0.25277994391198   -3.01243751638026    2.48470097541225
H        -0.89207864579308   -1.90032093599238    1.74884794162517
H        -0.45905826428121   -1.76634891209187    3.54370645270396
H         0.25120960009817   -1.52145757622143    0.10783415433077
H         1.53928312257923   -2.68380700566381    0.61293998411359
H         2.02376054473412   -0.82024483158452   -1.49643227974095
H         4.58617470289218   -0.23647304532141   -1.69079373351525
H         5.37950780488676   -1.79974910657695   -1.63223238732751
H         2.80312359206158   -3.60157807798881   -0.39304305678937
H        -1.31107939943476    0.80491121170313    2.04943496203633
H         2.57143908456677    2.97791276300186    3.06557748373601
H         1.21172318770787    2.91088032059697    1.98871302940051
H         4.47167548985052    1.42497261338464    0.06126204397277
H         3.11954431079381    2.14868712445768   -0.74546536998957
