38
 energy: -53.126519035575 gnorm: 0.167208991007 xtb: 6.4.1 (79825abcba525fcdf90b791dcacef51065a7a4e7)
C         1.17146534517107    1.20789793263528   -0.04035648766367
C         2.56122981937913    0.39688150638422    0.31140473954417
C         3.27480952244627   -0.34722037739907    1.68471528727965
C         2.36596101261115   -1.24122615593181    2.59727779214404
C         1.00043741400639   -1.11970406837971    1.96766363175947
C         0.03856782364005   -2.10035844167386    2.62494062673326
C         1.12772976644945   -1.62531457781682    0.34993552215738
C         2.29928095936559   -0.90478025992666   -0.44385408394754
C         3.41796273485219   -1.88261839719617   -0.76512172644155
N         4.35853720199946   -1.30154745960754   -1.57597446092723
N         3.58278278110705   -3.12183302351793   -0.40719349649096
C         0.64449756030326    0.42933473757384    2.37865563890168
N        -0.56134411610963    0.91572901712471    2.37670167348504
O         1.73880386048605    1.07381508647040    2.75449719610393
C         2.14568134570031    2.41711156557695    2.34966296104239
O         3.18934202623795    2.40539166546430    1.34463539696255
C         3.46882731651432    1.59595196683676    0.16370758235873
H         1.30848995535589    1.44836118879707   -1.09941278450558
H         1.08573944316830    2.22273971974583    0.37856051090438
H         0.27815454687025    0.59305236002091   -0.01827031228452
H         3.74125924273346    0.44642223038755    2.27403803924937
H         4.11710241954293   -0.92584252514060    1.27238251304178
H         2.35022005407745   -0.96200122320462    3.65497000532120
H         2.78068810098511   -2.25721708241464    2.58245846867610
H         0.55115219373999   -3.03661976794942    2.83978139500919
H        -0.94264093463696   -2.22951793432094    2.13598995099670
H        -0.09447554209111   -1.69952242331209    3.63580444019664
H         0.12437374030590   -1.45993089722360   -0.05742717169027
H         1.39189416730471   -2.68856721699589    0.48341290720322
H         1.87994274836240   -0.61317810846124   -1.42219017144580
H         4.51800650855361   -0.35911806417934   -1.27577119349223
H         5.12642530078858   -1.96212497373435   -1.53159299853487
H         2.92400713118444   -3.61640358816093    0.19076032011901
H        -1.31603383071415    0.32141965599430    2.03462195779255
H         2.62230081931380    2.92021318862326    3.19745967128542
H         1.28485592290050    2.96588307249497    1.95563989405688
H         4.52027895030301    1.32753690137897    0.28657422751147
H         3.33055628317495    2.14007442807849   -0.77702974150118
