38
 energy: -53.132283836481 gnorm: 0.143952185766 xtb: 6.4.1 (79825abcba525fcdf90b791dcacef51065a7a4e7)
C         1.08278105519968    1.04822903324343   -0.10868480350903
C         2.48564260897112    0.32901344975387    0.36842871550918
C         3.27531613876697   -0.37047000150925    1.72342100421545
C         2.37243504280658   -1.21167562343844    2.69047896857128
C         1.00053137084357   -1.11528928054151    2.07045777724710
C        -0.12221935967524   -1.92002657823459    2.71133048753140
C         1.25664554238300   -1.75852780083846    0.51818870211257
C         2.33400386363512   -1.00036211058454   -0.36853992531254
C         3.52595003958961   -1.84567537396853   -0.78751371785303
N         4.41213476758309   -1.04317762168796   -1.45869171169624
N         3.68636273332247   -3.13565083020808   -0.82160549937090
C         0.59740245423387    0.45074608074013    2.35356399648090
N        -0.54810980162752    1.03916854670844    2.17412593017597
O         1.62120769008834    1.11295536020351    2.87069045937859
C         2.20409804949299    2.34500165559423    2.34515623403044
O         3.28489169033863    2.33543266877962    1.38014902755445
C         3.44853176831352    1.48247480024593    0.20815075373820
H         1.32336077357467    1.36790673223450   -1.12756955130093
H         0.86207421980436    1.98409835164406    0.42814044771312
H         0.29679117168922    0.30081466503364   -0.11958109464207
H         3.83346773462611    0.40691977857341    2.25150922038646
H         4.04234125551704   -1.05965264924601    1.33486086308738
H         2.51727854123719   -0.77377397761873    3.68254230539611
H         2.58113062364280   -2.28894870934511    2.71008988090536
H         0.20759161361486   -2.92177763760215    2.98189304771854
H        -1.07575482651789   -1.98111263244084    2.15855189737667
H        -0.29738972380195   -1.54707539101788    3.72643563041003
H         0.28140123724509   -1.76305371146508    0.01929242532148
H         1.55684951691123   -2.79994315774476    0.72660375454083
H         1.89877394184184   -0.84900101326279   -1.37137719599648
H         4.32395361467899   -0.04520716808995   -1.45652957184533
H         5.18804548593500   -1.36644456300206   -2.02565337134748
H         2.96498044727425   -3.60928048389771   -0.28177522433511
H        -1.32487288921544    0.47061367244403    1.83772858810573
H         2.72082549027945    2.77718528497706    3.20843295199540
H         1.43261864420151    3.05606911480335    2.03430684343231
H         4.49095940510711    1.15856049174820    0.24158039145007
H         3.41547134681164    2.07205015354059   -0.71460747850133
