38
 energy: -53.121759803580 gnorm: 0.149064456336 xtb: 6.4.1 (79825abcba525fcdf90b791dcacef51065a7a4e7)
C         1.14769150151601    1.06416193986414   -0.09841767080653
C         2.55294989538640    0.33883990232850    0.36210995691523
C         3.25463634413609   -0.40699442771878    1.74059925719625
C         2.40007583163107   -1.28877109132711    2.71539078586848
C         1.02652621573553   -1.12738941017298    2.11276842056351
C        -0.11074213804230   -1.93660330688296    2.72160561683457
C         1.20797020267682   -1.77127191208395    0.55027586782591
C         2.24316968084444   -0.97491492306520   -0.35304102465437
C         3.40328814048554   -1.81661166208237   -0.85950028749748
N         4.42034515309043   -1.08635301184004   -1.41818020076469
N         3.61969214998087   -3.09882424673717   -0.86509913141363
C         0.62050912937750    0.45155820603242    2.30565022466379
N        -0.58600279702004    0.92239085946124    2.19039855516347
O         1.66461721741177    1.15114945501005    2.72341625437614
C         2.25736466596170    2.43358402447729    2.35207072755844
O         3.35780381892918    2.35590895223185    1.41268495917409
C         3.46422240288865    1.53478388978120    0.21171707384046
H         1.33471548103862    1.40352701665125   -1.12216174810112
H         0.86028157711656    2.02117235923340    0.36447630080720
H         0.25430136075234    0.45058633652892   -0.14207652803971
H         3.71836962958276    0.32773870773706    2.40382161562998
H         3.99049602817055   -1.10579292181379    1.31109905229956
H         2.43246898371805   -0.78984635674513    3.68850535169188
H         2.57522943647204   -2.37062315732331    2.77346880909589
H         0.31414841952730   -2.90530652348547    2.97961077381392
H        -0.89192805557162   -2.16924272812084    1.97719105778126
H        -0.50882709148317   -1.38870814036267    3.58274146818146
H         0.20539959649437   -1.83871591328200    0.11401571210626
H         1.59532197993406   -2.79281314580761    0.70685593823840
H         1.76008559501938   -0.56668428255523   -1.25747198707191
H         4.26266343947854   -0.13086240226474   -1.67488974286491
H         5.34811888216694   -1.48428320086859   -1.51237125574558
H         2.99702748134208   -3.62619621238288   -0.25657493837886
H        -1.25170466989970    0.19657804524510    1.92617233666661
H         2.75996352862837    2.84913947686300    3.23169830474467
H         1.52197134174381    3.18919749927989    2.05937689353635
H         4.49806132110297    1.20123239045518    0.09940551965042
H         3.31621422969715    2.11434800057150   -0.70609219818652
