38
 energy: -53.121130163350 gnorm: 0.161740079103 xtb: 6.4.1 (79825abcba525fcdf90b791dcacef51065a7a4e7)
C         1.07406015847814    1.10054834637004   -0.09727738091644
C         2.51876528163789    0.38660998297265    0.24338082379454
C         3.28497248441343   -0.32585394078963    1.60506623227586
C         2.37746376280652   -1.22777956541947    2.51114589261851
C         0.94203392735720   -1.18008570175755    2.04951533818167
C         0.01650740605146   -2.11249494142556    2.81951714287333
C         1.15026222950536   -1.58037397764176    0.41082690133778
C         2.35225498631830   -0.97374457485210   -0.43120515815536
C         3.57687543395112   -1.85634131432470   -0.61052884391254
N         4.60396715549131   -1.21569685905261   -1.25431699641559
N         3.56119384927542   -3.15342112747478   -0.51959365251370
C         0.59219975513401    0.40497048629458    2.29516085569758
N        -0.54463480529849    1.03361069678847    2.35044204104474
O         1.63439687507051    1.10510006735411    2.71677891846222
C         2.17309353796061    2.39200965108459    2.28370261059767
O         3.30773237266244    2.40262469826827    1.38263246808682
C         3.38031087302984    1.62455151896874    0.15087371161899
H         1.02565815733363    1.10660482334675   -1.19081253042521
H         0.93862173907227    2.10604401706482    0.33095050791658
H         0.19077760462362    0.49709058857826    0.08210412025162
H         3.96166983803003    0.31235714443504    2.17909805270268
H         4.11324210493895   -0.87335107834167    1.12705414843149
H         2.46265414893178   -0.82178467295324    3.52348867287997
H         2.64145781458911   -2.29102792876915    2.44583287180193
H         0.46010035093078   -3.10537619667138    2.87333782328640
H        -0.99413825666579   -2.17510288519560    2.37997061522872
H        -0.14082394558542   -1.74392030830986    3.83913239821724
H         0.17542371294534   -1.39369597953873   -0.05270370476783
H         1.35304124103046   -2.65637478885579    0.54942033280154
H         1.90285032216432   -0.85078588763862   -1.43167227432498
H         4.55196398033894   -0.33942631517761   -1.73719505166571
H         5.33063207084973   -1.86691192742061   -1.52974670364219
H         2.81016346239626   -3.51699147035493    0.06341933156592
H        -1.29947189191924    0.45083185342520    1.98937624901864
H         2.60872795844718    2.70230773626824    3.23919953931330
H         1.37072249357024    3.02513361134538    1.89283242195720
H         4.45885521898067    1.53228957473157    0.00622512339036
H         2.99506921813865    2.28317335454694   -0.63524395894477
