38
 energy: -53.126515230989 gnorm: 0.153411588456 xtb: 6.4.1 (79825abcba525fcdf90b791dcacef51065a7a4e7)
C         1.15360217735513    1.23856474951591    0.06395922063638
C         2.55446630907069    0.42247006639021    0.35464469395166
C         3.33702018550333   -0.36380853706560    1.66546155716689
C         2.42590489727282   -1.42603003010118    2.37226895713359
C         1.00566448791015   -1.15021687800295    1.94485748319102
C        -0.01836021297081   -2.09723678102585    2.55593510084720
C         1.04349801791740   -1.43529781955272    0.26968972220805
C         2.29323293197714   -0.82084008859687   -0.49346698857516
C         3.33060314436006   -1.89355493476722   -0.78325156389363
N         4.32063205111452   -1.45497143834929   -1.62425880502600
N         3.54169659678295   -3.06054721307698   -0.24986641750690
C         0.74372936925990    0.39086666333533    2.44643530249751
N        -0.42693423816367    0.90713041153154    2.67807253994805
O         1.81385956792526    1.08972944779079    2.79360993314069
C         2.20053141360858    2.44858799503412    2.42229631737100
O         3.19913597125371    2.46005320341756    1.37248544939351
C         3.47720254240750    1.61137719193791    0.21908908895283
H         1.02507519011700    1.04611257619393   -1.00591999442318
H         1.20099496506378    2.32385472293232    0.24463526326757
H         0.24182557347522    0.82985476257493    0.48603341727889
H         3.86728640382434    0.34220254626682    2.30975288584558
H         4.16220855516590   -0.88691439965300    1.15585028989041
H         2.50468803484978   -1.25042982148533    3.44924850323670
H         2.80201795296542   -2.40909979908913    2.06151419143270
H         0.52355900249308   -3.03438109045230    2.67241975035601
H        -0.79654158034064   -2.28114393588520    1.79492426817860
H        -0.36186436408391   -1.82655640311451    3.56040148477310
H         0.05891535348590   -1.06685195362927   -0.03831036871446
H         0.97863608565202   -2.53016361574374    0.14653526981376
H         1.90579786905805   -0.35812045575163   -1.41748130160173
H         4.37136142841646   -0.50420708888749   -1.93602681917719
H         4.97054604671832   -2.18368278883928   -1.89734496374612
H         2.77826916664840   -3.43393310422118    0.31039754200180
H        -1.16389291560952    0.26373829237951    2.39046654956546
H         2.77400781989159    2.70020410450187    3.32054504445439
H         1.29853612497082    3.01613702903201    2.17386656347679
H         4.53237389326127    1.35491666736112    0.33542830812303
H         3.28303667919522    2.23753310736975   -0.65863708257557
