38
 energy: -53.100973440302 gnorm: 0.167834924348 xtb: 6.4.1 (79825abcba525fcdf90b791dcacef51065a7a4e7)
C         1.13529457774653    1.15533927824212   -0.21445869267370
C         2.44398834727612    0.25943760857356    0.23007446324485
C         3.14929855544123   -0.41568624086928    1.64273535633457
C         2.36489338545247   -1.15776335534745    2.77942017322544
C         1.00289297775785   -1.11130443063832    2.13240182522448
C         0.03820628700878   -2.07683889619113    2.80768837377047
C         1.00796298640513   -1.62123926280607    0.51103503292917
C         2.16720622158816   -1.08794112467004   -0.43424375744422
C         3.49229032614793   -1.74353656191520   -0.78804588451961
N         4.48460444379408   -0.86735097434364   -1.14500163983817
N         3.88227634069704   -2.98024954196178   -0.69117969826582
C         0.59205588293434    0.46035594176866    2.36952064243493
N        -0.62248697807238    0.92243201990468    2.32470239491882
O         1.53773140288326    1.29623590403548    2.77091887479799
C         2.26314417775522    2.38926548306099    2.12830850104233
O         3.41094045210580    2.14556541890073    1.27823829736744
C         3.58205486630634    1.24939526604133    0.14004056732605
H         0.70177200819822    0.58475928373510   -1.04192181099318
H         1.53561270930670    2.11773105111413   -0.56983414835967
H         0.34775965799660    1.24297904597865    0.52624035725045
H         3.68837326124909    0.39304069020649    2.14283980338305
H         3.85819080596136   -1.17410395351825    1.27320377292759
H         2.25975267207434   -0.69656649657256    3.76591398910898
H         2.79403834560654   -2.16665533984012    2.82868778131929
H         0.31532980163413   -3.11544224750776    2.63451160402550
H        -0.99695471792387   -1.94311880809116    2.44840269430574
H         0.12804271633152   -1.85731568317790    3.87724653947010
H        -0.02351911525333   -1.47006779061990    0.17456619125183
H         1.09508602236211   -2.71138445574784    0.65968979168071
H         1.70347809967141   -0.81602421665958   -1.39810851515783
H         4.13841516152918   -0.14026927635813   -1.74101406043540
H         5.40990359585470   -1.23920351820737   -1.32811813085312
H         3.24075665787926   -3.63259764863652   -0.24505346898515
H        -1.41372162216766    0.30513472260814    2.14395259062645
H         2.73888962175517    2.88957815564131    2.97824386824343
H         1.43120784198741    2.88827684773877    1.62205328841313
H         4.60249347653532    0.86245033014225    0.18093138184417
H         3.50144590256698    1.94523609261891   -0.70226733126449
