38
 energy: -53.126928859504 gnorm: 0.145377075450 xtb: 6.4.1 (79825abcba525fcdf90b791dcacef51065a7a4e7)
C         1.12864300146299    1.04570852434169    0.01690335940599
C         2.57005337998303    0.32135011398650    0.34942393109461
C         3.28417975279336   -0.35333752152241    1.75785767297826
C         2.41890040266961   -1.31978142340319    2.63836895701870
C         1.04040028559577   -1.09764474522078    2.06720431562121
C        -0.03136923991630   -1.92358968929527    2.76578446448143
C         1.18743765549162   -1.70598367750720    0.48695327514111
C         2.33459353681576   -1.00965859196999   -0.36214543030165
C         3.49990144281847   -1.87305694780313   -0.81759028103069
N         4.57694736547444   -1.14171042435873   -1.24760222544370
N         3.69703921276547   -3.15666403875383   -0.88407864281382
C         0.62202595242259    0.46654217983144    2.33814904163342
N        -0.56415106452294    0.99493050258256    2.27161148436324
O         1.64555931731855    1.17855351186682    2.78484514727109
C         2.06368087675162    2.47817656998452    2.26519165054853
O         3.16449708368439    2.43439180892281    1.32405831431373
C         3.42946137590908    1.55414099712549    0.19142969266723
H         1.22240012856166    0.95742530749572   -1.07011745073795
H         1.11262559045215    2.13774472087648    0.15812881259147
H         0.15905278583215    0.65075800722934    0.30051570417514
H         3.55917831914242    0.42372695694766    2.47569597447789
H         4.13728033949246   -0.93868921945949    1.37856620736280
H         2.46049353490770   -1.21919021986928    3.72698210521189
H         2.72864341631901   -2.36683629795190    2.52795566777162
H         0.23043996826462   -2.97865945342642    2.82717095036848
H        -1.00970563073016   -1.87666438980675    2.25668575095922
H        -0.06318517033214   -1.63135620263877    3.82115313890437
H         0.23560772406529   -1.53932717038772   -0.02905529136748
H         1.40425284165526   -2.78073547520477    0.61346399944152
H         1.87892763752795   -0.91116712941688   -1.36248831455276
H         4.43962392302703   -0.33740078352339   -1.82894024767696
H         5.09381431664160   -1.79614434970813   -1.82427309515569
H         2.95892471289459   -3.72411306874769   -0.47259017401327
H        -1.29088613342354    0.32616074205569    2.01787566188782
H         2.57073841757047    3.01168073701651    3.07593364949576
H         1.23545879822449    3.11624410990134    1.94217035445042
H         4.51504178317421    1.44581476895520    0.24116906996291
H         3.22639091049585    2.08630586328611   -0.74437893609346
