38
 energy: -53.120404674361 gnorm: 0.156934813891 xtb: 6.4.1 (79825abcba525fcdf90b791dcacef51065a7a4e7)
C         1.23502287477749    1.23908295293306    0.01715445439420
C         2.56364216081097    0.35469894561613    0.42405078153529
C         3.21721117715342   -0.44331523374500    1.79696242116569
C         2.33290439311661   -1.45317451661929    2.60702908915539
C         0.98297674466207   -1.15554309067325    2.00292053391664
C        -0.13766026241757   -1.99884970937214    2.59612856881568
C         1.12526104946246   -1.53419937801369    0.35208314056306
C         2.27002309639213   -0.83032887430832   -0.49401967606551
C         3.44083849371279   -1.70880263283897   -0.90426883170377
N         4.20503992389047   -1.25421720232852   -1.94789431630201
N         3.69228955301089   -2.91297663229943   -0.48276142542024
C         0.65711218179085    0.39680543486028    2.42618773021866
N        -0.50012821291637    0.98815648317098    2.38452311035834
O         1.70504567210628    1.00818135494800    2.95738725885840
C         2.24961103130553    2.26422670907780    2.44779515972004
O         3.45428579332337    2.20260051815822    1.64504594187358
C         3.56623376681612    1.48439575586327    0.38031485216591
H         1.47767670488124    1.64563331181992   -0.96977739918737
H         1.18128212349770    2.23189689503787    0.49062741647663
H         0.27163276466641    0.74824350355919    0.10365988241218
H         3.72719270468857    0.30429680601084    2.40993901933757
H         4.03170444823378   -0.92744101591038    1.23437716001826
H         2.36989420554231   -1.08536996848672    3.63672745512980
H         2.74268186229424   -2.45300792386231    2.41501007169534
H         0.03346545833967   -3.05541930683436    2.79578132297536
H        -1.02486201344707   -1.81967589093757    1.96423034735334
H        -0.37985125536291   -1.60515369738813    3.58938717744180
H         0.21176815418706   -1.59890788869819   -0.24905158108156
H         1.44474487714630   -2.58936143014577    0.40373912723041
H         1.68707382300697   -0.51933573797543   -1.37802830205627
H         3.98469869486567   -0.59645975248313   -2.67075701820007
H         4.92416875974731   -1.90741771631457   -2.23801030981736
H         3.12818087008554   -3.24169232181696    0.29817491056099
H        -1.30886984363313    0.61935004911335    1.88482571123444
H         2.76541051307052    2.75577286426556    3.27928172210393
H         1.46379289492006    2.86449606345003    1.97918945351507
H         4.62000856695835    1.20755090515771    0.30542163075877
H         3.28533459578418    2.15406409392335   -0.43993805173853
