38
 energy: -53.127943263233 gnorm: 0.157945001375 xtb: 6.4.1 (79825abcba525fcdf90b791dcacef51065a7a4e7)
C         1.10173037681772    1.19033941204719    0.06740660963202
C         2.50879701291031    0.37881608397522    0.34039427421776
C         3.34297515364038   -0.31368725781255    1.67210423504077
C         2.49164515746426   -1.24503590313110    2.60261442350630
C         1.07020096032704   -1.15411239825229    2.10555747838601
C         0.00029076848836   -2.02643368566204    2.74839252600746
C         1.25944551807090   -1.65191928689763    0.49147434677980
C         2.27071141133470   -0.89390687977013   -0.47006728886006
C         3.30192436686068   -1.88083284988606   -0.99294987536508
N         4.43003986776805   -1.21656241675750   -1.40026561971227
N         3.21456087552161   -3.17498810162959   -1.08493336232280
C         0.67947750036221    0.42188926981012    2.34780268573493
N        -0.51988109421688    0.92052930162105    2.28835153031785
O         1.65187503092648    1.15045483111364    2.87482577191270
C         2.25949992174721    2.37356427392214    2.35648153205943
O         3.37736811273807    2.26817881549819    1.44067042573718
C         3.47589838576559    1.52963093438954    0.18658352005705
H         1.40006910558257    1.69668355684510   -0.85606952602201
H         0.87957109898441    2.01549641994379    0.76203269809449
H         0.19770372252681    0.61677832280920   -0.10663517295294
H         3.79742682486387    0.45234311377775    2.30567852534330
H         4.04361985420786   -0.96537825964652    1.12559249694334
H         2.52073561093154   -0.99220141006076    3.66664244167339
H         2.84334617493817   -2.27783365526416    2.48390919751459
H         0.00178405055222   -3.10177742388493    2.57775206585376
H        -0.97114423293951   -1.53159167746025    2.57527119066995
H         0.13438191989755   -1.94350942250514    3.83253219665027
H         0.25353794133850   -1.62244777798890    0.05869169689374
H         1.46771942607970   -2.72004323648169    0.67542655949380
H         1.71154142907837   -0.60815278556680   -1.37764173401395
H         4.68045008876824   -0.32394418761858   -1.02045904455021
H         5.24927552323515   -1.79208711295979   -1.56029296541595
H         2.26688933994508   -3.49124048018790   -0.88990190190126
H        -1.27333998486985    0.31019357924816    1.97280641682321
H         2.80093369259567    2.64776741658643    3.26790829424845
H         1.44963178817783    3.05759391051878    2.08511128582753
H         4.54955980906608    1.32994882224691    0.17812202810695
H         3.32895618295193    2.22627060766858   -0.64604845031340
