38
 energy: -53.132097802585 gnorm: 0.135780021420 xtb: 6.4.1 (79825abcba525fcdf90b791dcacef51065a7a4e7)
C         1.17950805816961    1.08339293603872   -0.11042219480012
C         2.55586385784975    0.30026749221911    0.34266515693280
C         3.31241824368690   -0.33079385439016    1.74916879418398
C         2.44046565938863   -1.25043845012396    2.67219358171552
C         1.04082296847667   -1.11213835755278    2.12656580107499
C        -0.03520436540874   -1.99446003015571    2.74508238743089
C         1.19365692546316   -1.70761498907339    0.54197157257640
C         2.23361111438140   -0.98545593084409   -0.41656135946551
C         3.46175529234948   -1.81812379028860   -0.74694801925469
N         4.55624309932903   -1.06797243280414   -1.09216577000961
N         3.59861771939249   -3.10761623530954   -0.84394836988565
C         0.62371083748540    0.45668278182715    2.37140547372950
N        -0.56106367999442    0.96041344818094    2.18919108606386
O         1.66942085065396    1.12855718004485    2.82878213013354
C         2.13715634744538    2.38030495786946    2.23866649574607
O         3.14735430726986    2.41056398967397    1.20038434210346
C         3.46872647337704    1.48379296236499    0.12070358237393
H         1.43839704219008    1.45812421154685   -1.10578721452572
H         0.73491619883767    1.90561565022780    0.47184245149973
H         0.38189388294375    0.34870699427646   -0.13440674866568
H         3.82291252784873    0.43685634779963    2.33641148247280
H         4.15346652519089   -0.92875994647834    1.36270590076223
H         2.46010263964265   -1.05284351488208    3.74806428641760
H         2.85318978851059   -2.26436561962042    2.59430772728216
H         0.19617297341055   -3.01639022133334    2.44909628619918
H        -1.04969688506451   -1.71241348915891    2.41375137774652
H        -0.04487150499847   -1.81464753029016    3.82572557617304
H         0.21798493510770   -1.78791391633640    0.05040706089552
H         1.42110733558909   -2.78221189563522    0.64973517086798
H         1.77090438484906   -0.69540448380669   -1.37561843565991
H         4.35999220636460   -0.12578344073719   -1.37053802062990
H         5.27620060401464   -1.62990968006049   -1.53247499284097
H         2.68893820010721   -3.55370239426622   -0.74584388519079
H        -1.32199819311049    0.29616655749890    2.04942899596611
H         2.56453899239789    2.91542964426392    3.09307990202552
H         1.25839362778093    2.95848389588767    1.93715373852475
H         4.54232052079984    1.34329760949569    0.26335794799023
H         3.26578484434885    1.97599783962658   -0.83675341389519
