38
 energy: -53.128918163161 gnorm: 0.156275906128 xtb: 6.4.1 (79825abcba525fcdf90b791dcacef51065a7a4e7)
C         1.12494791014425    1.04987442147198   -0.09418603653257
C         2.56808137349309    0.36397593191637    0.30561138277198
C         3.22221629789439   -0.34732228549880    1.72512814184384
C         2.34943218456210   -1.36912264258269    2.53271355202276
C         0.94929163031341   -1.14847264990583    2.01622900325156
C        -0.14681319543619   -1.95024749765877    2.70514150771050
C         1.10817715301370   -1.62882835203649    0.39360664921631
C         2.33873142491279   -0.98389996782470   -0.37555352290806
C         3.60376562463090   -1.79937280282439   -0.58891182855546
N         4.56373573705990   -1.14333726557035   -1.31546580239126
N         3.77337371581750   -3.08839000637874   -0.56443915322115
C         0.61986384901489    0.40778107050993    2.42203742148488
N        -0.57053045954463    0.88007433398832    2.64684356552533
O         1.67390675534905    1.15063939747457    2.72415179833462
C         2.14466119588950    2.42796500983016    2.19432636719448
O         3.28546545445909    2.39459162511787    1.30163536536804
C         3.47624325801419    1.55767581283637    0.12219867551774
H         1.08231174362531    0.93294812701573   -1.18171027070443
H         1.10449284963902    2.13501433264420    0.09235404864409
H         0.29568569978509    0.46109234055898    0.28289076012749
H         3.64825469658201    0.53061002207638    2.21754197717223
H         4.12886415226001   -0.77005503104754    1.26299620148360
H         2.55118212881891   -1.13795178756552    3.58284885183766
H         2.70870342770637   -2.39378989702223    2.37322400091896
H         0.12590256245372   -2.99905197894894    2.81059212355847
H        -1.05458604497204   -1.89530550880170    2.07947753903909
H        -0.46969458571451   -1.51845165787204    3.65882680483153
H         0.18438804642298   -1.38486156799640   -0.14222291371776
H         1.26776101222358   -2.71772384433819    0.47694209737764
H         2.01300815667371   -0.77000156563777   -1.40810845100328
H         4.16485174988633   -0.30186569781160   -1.68498277281527
H         5.21167557076020   -1.68806344977143   -1.87352659092421
H         3.05875322481985   -3.53988458013467    0.00266258534925
H        -1.26821098202066    0.17730497685251    2.40366496165639
H         2.66309603801346    2.91743714973148    3.02539734172411
H         1.29785024680450    3.02466090147567    1.84177853971059
H         4.53721328616372    1.30148886573936    0.15967189301849
H         3.32611419440082    2.14027352955712   -0.79334269897321
