38
 energy: -53.126178320658 gnorm: 0.163097664701 xtb: 6.4.1 (79825abcba525fcdf90b791dcacef51065a7a4e7)
C         1.13756736510132    1.07803861588342   -0.13673337106473
C         2.51631792638353    0.31565252871167    0.34362404169696
C         3.22279928472082   -0.32033069032448    1.77375511756052
C         2.38971821327725   -1.35028025186897    2.61232657776064
C         0.99222663450755   -1.12308546092434    2.09152326148493
C         0.02578161898874   -2.05901586272504    2.80490075025914
C         1.15239388955083   -1.62912476594342    0.47685295209614
C         2.28423988451891   -0.98131389252991   -0.42927591483462
C         3.49134981042289   -1.84392866901674   -0.76035083289013
N         4.44716043168651   -1.15680789204998   -1.46327117203104
N         3.64209120401370   -3.12456166591732   -0.59246005379336
C         0.65348885154194    0.46865236361754    2.30775504793866
N        -0.54109189217415    0.97909548113006    2.36309053434570
O         1.60259193508605    1.28073455824844    2.74803211418627
C         2.10003247957817    2.51410937615638    2.14369369285676
O         3.34434158118179    2.34428714725281    1.42098998837297
C         3.43621651898027    1.50892141080666    0.22867365630449
H         1.31266908346022    1.18605840990133   -1.21184716662461
H         1.04148217657299    2.09192141919040    0.28225772218343
H         0.21132721655891    0.51489103200392   -0.09837918180305
H         3.66545819326305    0.44997161876275    2.41049107023874
H         4.19241523203423   -0.68602671492372    1.39906783049272
H         2.58935033656494   -1.26912254190268    3.68493442170335
H         2.68924179360094   -2.32445742925316    2.20523913592988
H         0.35434209719516   -3.09209289120566    2.70348861297880
H        -0.94772956113272   -1.97511294060153    2.29132325085060
H        -0.10272596850507   -1.81095210462860    3.86422405254004
H         0.10930753287900   -1.67056072608660    0.14477864885263
H         1.36356294558847   -2.68037418889087    0.73836297817649
H         1.80195842313272   -0.82013277960594   -1.40878757011892
H         4.76154887591217   -0.25486142278094   -1.16098308292582
H         5.13001378835488   -1.77761501102098   -1.88314532335789
H         2.86537122475305   -3.72499072620594   -0.32352663191023
H        -1.26449400542693    0.31883052496756    2.07933309603183
H         2.50458623149063    3.07630614004691    2.99181378408723
H         1.26842821045329    3.02604165097599    1.64994838069214
H         4.51611422791174    1.34628792901214    0.23671620509984
H         3.19925728824689    2.09289343900434   -0.66743004358980
