38
 energy: -53.132499256845 gnorm: 0.150851978777 xtb: 6.4.1 (79825abcba525fcdf90b791dcacef51065a7a4e7)
C         1.09173011621293    1.10945428165963   -0.03778655517819
C         2.47252817701954    0.31070597241784    0.37248990062360
C         3.31341811749764   -0.34481269983422    1.71861948578111
C         2.39718311775507   -1.22527792899220    2.63694224202617
C         1.02856116808049   -1.12067009890285    2.01102894907511
C        -0.03013286979611   -2.02760867722900    2.62382458969256
C         1.20434387750203   -1.70385966995098    0.42424606768705
C         2.29055677327904   -0.95649312198181   -0.46084638205488
C         3.49186209013338   -1.84760831846240   -0.73215528916811
N         4.45871496046143   -1.22077501529194   -1.47517713763859
N         3.60527240824985   -3.10009259917772   -0.40147053473079
C         0.62789010155596    0.43692681989674    2.34039702446455
N        -0.55154530426840    0.97339882409233    2.44887403929588
O         1.61354804165737    1.20104043725203    2.78618494033437
C         2.18078027223421    2.42209095301675    2.21946746498160
O         3.32347283240539    2.37435295664315    1.32984947635457
C         3.36856430244582    1.50819894184005    0.15697303733313
H         1.19511099778650    1.16516722180331   -1.12609121143523
H         1.00387597061646    2.16506069708945    0.26341268809113
H         0.13786406188552    0.62173568972688    0.13191078263370
H         3.77536352545548    0.43987551970914    2.32328143577034
H         4.14426242453774   -0.91219805934537    1.26911884541411
H         2.51898141066295   -0.88298694094862    3.66889631592610
H         2.92529046656286   -2.18676477799349    2.67012951288991
H         0.33606066154745   -3.05259021616188    2.59554555498581
H        -1.01684273904399   -2.02298939186825    2.12894292684468
H        -0.17822233024131   -1.72025975057895    3.66489223558543
H         0.21871165836625   -1.69032711282355   -0.05362990113459
H         1.50842698858082   -2.74387695798695    0.63401431198561
H         1.92621509973301   -0.76221159533124   -1.48433438290085
H         4.36751116207927   -0.22628625995912   -1.55517468146140
H         5.30051692591389   -1.68216664556442   -1.80147715553732
H         2.84921077170732   -3.61614073683350    0.04372526059254
H        -1.26625241452197    0.34136303490499    2.08900847269207
H         2.50495946915356    2.91393262002788    3.14252556179833
H         1.32760925562475    2.95401835309996    1.78752162452597
H         4.42637956147448    1.23701940688436    0.14348432091437
H         3.31562059352134    2.08608272589585   -0.77223207703330
