38
 energy: -53.127940932726 gnorm: 0.133105670600 xtb: 6.4.1 (79825abcba525fcdf90b791dcacef51065a7a4e7)
C         1.20224383349770    1.21954323687928   -0.10360266528299
C         2.54694678196105    0.39048762669707    0.36262649879305
C         3.26482652882834   -0.31555475873801    1.75367583825684
C         2.39701525199621   -1.35361563463797    2.54573357942120
C         1.01749064826347   -1.15925563952378    1.96696562758442
C        -0.04565335697025   -2.06093023954769    2.57982521481884
C         1.21894585163050   -1.57235337361204    0.33061126622647
C         2.44069015778579   -0.90752313640448   -0.43564288828807
C         3.56649686963463   -1.90049737471267   -0.67520626504595
N         4.54714254151493   -1.30381824567667   -1.42494887768359
N         3.59463013265188   -3.18279104563019   -0.46105072067762
C         0.60783874074357    0.38171332874215    2.35777088493209
N        -0.51470789140523    0.99500460757247    2.59100942173813
O         1.65604245762460    1.08452156695408    2.75957634223760
C         1.96819059441295    2.39657833715950    2.19836688373271
O         3.18804717503522    2.46544905916513    1.41948811992606
C         3.48942751052677    1.57033608476427    0.30780569498690
H         0.79542791367009    0.95860440849248   -1.08574841682885
H         1.38498977150397    2.30490037667363   -0.14031819769746
H         0.30027202187708    1.12263990226924    0.49102633081300
H         3.78516855795685    0.42886427964007    2.36181208424247
H         4.07819086632904   -0.88068242364849    1.27061434236951
H         2.38892781004885   -1.25135604490985    3.63495565095769
H         2.81212335473440   -2.35074874994144    2.35114031371707
H         0.40110500601659   -3.00502822829616    2.88734840045861
H        -0.94442008895119   -2.17038153661491    1.94834731565373
H        -0.41470025622387   -1.66075008383872    3.53054910687293
H         0.35264358416522   -1.32790774264563   -0.29371729285803
H         1.23300374752141   -2.67569201335561    0.30712883853084
H         2.06612430702999   -0.69649160440705   -1.45209945827537
H         4.38978787912171   -0.41365595742946   -1.85689357876027
H         5.07195872868122   -2.00627504509212   -1.93397432316629
H         2.93667613917042   -3.50112060382561    0.24739617531360
H        -1.36438239058743    0.49058058791216    2.33923896117316
H         2.28046883708408    2.95123500843372    3.08936346616305
H         1.10467596113648    2.84799536402366    1.70038104156677
H         4.53369406344303    1.32701617875365    0.51516090538488
H         3.38709817404289    2.15612596768756   -0.61227786954704
