38
 energy: -53.108638015306 gnorm: 0.153179564039 xtb: 6.4.1 (79825abcba525fcdf90b791dcacef51065a7a4e7)
C         1.27225821444447    1.18979481634123   -0.13880539637854
C         2.61374286181042    0.33890845411112    0.29632704903336
C         3.33451469103681   -0.29760509500653    1.71907226111318
C         2.51163488738663   -1.30540592216434    2.59384571130174
C         1.07517025875229   -1.16988824067299    2.15334529753985
C         0.11744188452093   -1.93665043412147    3.05541027995269
C         1.17442379817115   -1.65846910138767    0.52843698564820
C         2.21446280644577   -0.94184681408960   -0.43415076700591
C         3.39083421575439   -1.79816310750476   -0.87426662540437
N         4.59603800097226   -1.17016808277611   -1.05568326571825
N         3.25477083179433   -3.08021522403704   -1.04385524530086
C         0.57567769219341    0.39089648311897    2.25125874540924
N        -0.69038722513447    0.63809257695179    2.08812972248839
O         1.45568062624057    1.25635253742581    2.73156980170766
C         2.06252304674449    2.43715333908927    2.12219536805933
O         3.29439519853503    2.33347319483671    1.36642636102831
C         3.60701318704941    1.47564321155427    0.22875643172185
H         1.52026850029944    1.47397027670538   -1.16639177511654
H         0.89630886616153    2.05751708133098    0.42552109852992
H         0.35487893244207    0.63910243653034   -0.31679476784147
H         3.79407162450208    0.50350134436692    2.30369276149243
H         4.17381370039542   -0.85145677589109    1.26840084382300
H         2.56217674764210   -1.07386798293164    3.66191071883065
H         2.91827754879770   -2.28416666605829    2.30902140939209
H         0.35325681276350   -2.92168902546362    3.45487847647896
H        -0.86112368832313   -2.11079317363382    2.57519231746215
H        -0.16557144168901   -1.42693735766590    3.98294018341530
H         0.16719642143372   -1.46796121095340    0.14214797158182
H         1.36499656318152   -2.74429234684900    0.47575776486499
H         1.66913615374029   -0.66111723840951   -1.35166239826811
H         4.72500112014418   -0.22312694180054   -0.75533811806246
H         5.42821849386046   -1.73234811251925   -1.19501641666457
H         2.28435084910888   -3.33619067267070   -0.87386757241245
H        -1.25660438208857   -0.13808733282229    1.74648430020411
H         2.40229968547647    2.91032208111362    3.04939535174183
H         1.22394868968336    2.95329073486654    1.64489045053077
H         4.62541780011823    1.24644571131280    0.54971429065620
H         3.58213622171255    1.99253360906629   -0.73684198273054
