38
 energy: -53.122380671459 gnorm: 0.153977487766 xtb: 6.4.1 (79825abcba525fcdf90b791dcacef51065a7a4e7)
C         1.19377394944304    1.18656376791714   -0.07347399019535
C         2.60268917046178    0.40973583140860    0.27926551017632
C         3.29739351393933   -0.32141380090853    1.66911138970811
C         2.40596876114105   -1.38677866515061    2.39601020945962
C         0.98818024890946   -1.12040152552394    1.95469937648630
C        -0.08104414990985   -1.99790452438672    2.59159562454807
C         1.13222623607446   -1.54877767654446    0.31621405145968
C         2.32393764172564   -0.87903615780685   -0.49191590910393
C         3.43816650432614   -1.83568368510172   -0.88453374762560
N         4.24348719122341   -1.36661482177328   -1.89013749561641
N         3.65782698432616   -3.02520485593210   -0.40733377795172
C         0.63001735983946    0.38130657337533    2.51301910726974
N        -0.50767170823069    0.93044107382192    2.82083761301485
O         1.67133433710716    1.08898347969019    2.92407921951037
C         2.19342185204513    2.33854171621118    2.37643489409893
O         3.34890087829214    2.35016617132164    1.50226187965389
C         3.57133286223277    1.56944512636755    0.29028258286681
H         0.88257813894684    1.08945782558293   -1.11842669478859
H         1.32424568520013    2.25723969522793    0.14872957873428
H         0.29868814394057    0.96198142165815    0.49653585890926
H         3.72419076354834    0.37192231091710    2.39840857123238
H         4.14394237489903   -0.82161072608609    1.17168069119994
H         2.56210577206553   -1.26010491681191    3.47141811149088
H         2.56144810463467   -2.44599263726167    2.15445758772762
H         0.10677582764482   -3.06357499386707    2.47095289572616
H        -0.99409687150872   -1.80863375464965    2.00080219143403
H        -0.12270477657654   -1.77938382744262    3.66431590163832
H         0.15852370057100   -1.48743705513474   -0.18194267751652
H         1.06989426557363   -2.64267537078660    0.44890830170888
H         1.88776169237673   -0.64974927281954   -1.47943599295642
H         4.46958564612511   -0.39060052146671   -1.88904558239171
H         5.00286528839995   -1.97259104556114   -2.18017578229105
H         3.00007209378054   -3.39490963659426    0.27590194326503
H        -1.38771780512493    0.45017697312073    2.63470870899933
H         2.63044710752360    2.92204854428518    3.19348161007717
H         1.28039873105283    2.86697189395304    2.08561694788239
H         4.58421275576580    1.21988578235962    0.50141283433819
H         3.44355889710527    2.24258496841029   -0.56454570996600
