38
 energy: -53.122973001457 gnorm: 0.148860728117 xtb: 6.4.1 (79825abcba525fcdf90b791dcacef51065a7a4e7)
C         1.16660855614796    1.11757938708300    0.03094482182374
C         2.57933989039640    0.34221006173974    0.37141726058880
C         3.25066005835443   -0.36199746224522    1.78643897431003
C         2.30263260922031   -1.27983541436540    2.63310284488754
C         0.95062225277684   -1.09234869535502    1.99064428673343
C         0.02411551114375   -2.07083727651313    2.69989352038912
C         1.13473704044168   -1.65960547735068    0.39903786630162
C         2.27614643625668   -0.92526143272780   -0.42541784573854
C         3.45904425868683   -1.82263294508565   -0.75146438065536
N         4.38456735819847   -1.21065110624588   -1.55687802408519
N         3.77472209349058   -3.02992109662175   -0.38576780998617
C         0.53110723318833    0.46999264575077    2.27033237768160
N        -0.65040018714806    1.00946221366434    2.20991624322896
O         1.58953201351684    1.13320654546551    2.71078933670361
C         2.28147678483009    2.35313996682779    2.30230394983963
O         3.42614472635735    2.30740648091688    1.41512352629520
C         3.52553610828333    1.50770097622855    0.19919276944215
H         1.49522043053974    1.54686831477607   -0.92085548133539
H         0.85708607652114    2.03233292221201    0.56025194976291
H         0.28180827874274    0.53113529671166   -0.19207727206768
H         3.53167134436760    0.51047285319787    2.38189967106479
H         4.14817562923240   -0.92144429375325    1.47698094879519
H         2.34254896803079   -1.01564178647268    3.69401545229718
H         2.47159445386369   -2.36368758795550    2.59886709637682
H         0.34446255675328   -3.09853045679893    2.53646447148805
H        -1.04331295449936   -2.11743511848196    2.42249368937935
H        -0.00797407125484   -1.78583631812837    3.75722998584931
H         0.20358577387602   -1.36616284850211   -0.09782044457758
H         1.23143244704867   -2.75672495429564    0.47034032419058
H         1.97764144424807   -0.64342893978372   -1.44986065039615
H         4.19678853513166   -0.28729605155590   -1.89728979742380
H         4.86795910069167   -1.88440242067395   -2.14029561139731
H         3.18111846407637   -3.26409196610632    0.40728509798126
H        -1.34715946255947    0.33819286187674    1.88788724068390
H         2.74309073315301    2.68006755927037    3.23988996412478
H         1.60552393474719    3.12035491315415    1.91256851760559
H         4.56944552258677    1.19154638695574    0.14448624530241
H         3.23343073546565    2.05959965394423   -0.70095007756477
