38
 energy: -53.122898949366 gnorm: 0.155408809193 xtb: 6.4.1 (79825abcba525fcdf90b791dcacef51065a7a4e7)
C         1.30124055446403    1.22778003165803   -0.23964472908983
C         2.61875037072222    0.42526113380074    0.33746895431255
C         3.26558528439786   -0.42850356006380    1.67968946122265
C         2.37594475075647   -1.31574055514540    2.61743809050922
C         0.96225699691269   -1.17081867341339    2.11115667567142
C        -0.06958658503555   -2.03428075799862    2.82433350252754
C         1.21374618239209   -1.62649936949558    0.49313386266552
C         2.29366078050373   -0.87468444619431   -0.39588952037112
C         3.39955722892316   -1.82994038334431   -0.81458790978698
N         4.20731035634263   -1.33423495949456   -1.80535373356396
N         3.75045415077196   -3.00120431544164   -0.37193308529733
C         0.61286916578372    0.41179201047941    2.37269134902377
N        -0.60056842070973    0.87288078119621    2.29783328468391
O         1.66964855547548    1.07440430559595    2.81797815602013
C         2.05979912687698    2.37454306549323    2.27824932333494
O         3.24438270627941    2.45272944365235    1.44753035558012
C         3.50535922984105    1.64643942527906    0.26022971922940
H         1.55570962921311    1.16802423834470   -1.30259971377628
H         1.35857186311245    2.26109245436230    0.13681615949714
H         0.30964697082804    0.82964659391242   -0.05320710434596
H         3.86144411672453    0.24173147022286    2.30457543909785
H         4.04609060304105   -1.06540422943693    1.23309320707401
H         2.52473587148714   -1.08969963360816    3.67748236042334
H         2.67420879366156   -2.36624135754291    2.50815700825428
H         0.42775676166724   -2.95422267609369    3.12738634426884
H        -0.88374105312801   -2.37894013016566    2.16335847801762
H        -0.45424461519118   -1.46392987112080    3.67694933486008
H         0.22093544461187   -1.63990128818980    0.03035243084897
H         1.54021624972365   -2.67995206376851    0.53508527824980
H         1.85021535309930   -0.72141329125945   -1.39482992897591
H         4.19706317800926   -0.34002270621695   -1.92849027345431
H         5.04696998956215   -1.84153808886576   -2.06147815200366
H         3.13554526717708   -3.24002069425894    0.40330105904163
H        -1.23879750158673    0.11662192392708    2.05183551727053
H         2.38087663691388    2.92857060488181    3.16650567580762
H         1.12336961155851    2.80167914168325    1.90665911075308
H         4.56519469980772    1.51880079566076    0.49077373495920
H         3.40849474579109    2.20305375789711   -0.67837167977913
