38
 energy: -53.131069892379 gnorm: 0.151577978915 xtb: 6.4.1 (79825abcba525fcdf90b791dcacef51065a7a4e7)
C         1.15920573476370    1.10720449169872   -0.03880151907761
C         2.56631779881723    0.34512056652317    0.35131723795704
C         3.28573781735893   -0.36667411127381    1.73863430754304
C         2.40965616773182   -1.26847746058523    2.67525266438402
C         1.03474536581063   -1.12978467536036    2.07009076850766
C        -0.05299335517580   -2.00162753782284    2.68295591118301
C         1.14089451339482   -1.57333145916598    0.43274895804582
C         2.25751053561853   -0.90190077133220   -0.47507995673690
C         3.35749386014001   -1.84924843347033   -0.92607700331116
N         4.32856744336090   -1.15586152641310   -1.60138183792700
N         3.46698329826332   -3.14416308206601   -0.97232932655939
C         0.69119532774482    0.44568649569878    2.37829986977500
N        -0.51325771878129    0.93069755429753    2.44681649936411
O         1.74116053834940    1.11366299043617    2.83161936756310
C         2.16206592001872    2.42607727347854    2.34758124311958
O         3.30943408405042    2.38460045159039    1.46368568521041
C         3.53725489237554    1.50264809538510    0.32432056418163
H         1.32363567486130    1.30562272260369   -1.10265844748271
H         1.02516490887099    2.07712849227237    0.46520714152592
H         0.27970984433690    0.47249727315709   -0.02612126576472
H         3.87661584816712    0.32459520031516    2.34506247979163
H         4.08968217814852   -1.02743798362324    1.37622044819002
H         2.44864549126331   -0.93684140728844    3.71708975510684
H         2.77900033016984   -2.30059108216999    2.62250702549589
H         0.12242848478828   -3.07365521642567    2.60900727317113
H        -1.02070246421695   -1.87556396894099    2.16703669811999
H        -0.11026796366006   -1.66652457222529    3.72441706002544
H         0.10308968129223   -1.47023289128188    0.09756055682863
H         1.27311395281909   -2.66610525158109    0.51317704136159
H         1.71679458656559   -0.58889751181422   -1.38484535100374
H         4.50092015476032   -0.18924986525425   -1.40217827181452
H         5.13070848326209   -1.74143493810326   -1.80548481416980
H         2.79580255897111   -3.70975967125870   -0.45681881659618
H        -1.17351006669218    0.18193296797219    2.23897724092454
H         2.67778904742279    2.79442003082160    3.24054815524016
H         1.37323834757179    2.96003467387598    1.80900412199700
H         4.59624176167419    1.26090995695423    0.43747038196747
H         3.52848384332493    2.15525194560068   -0.55556927488806
