38
 energy: -53.116217066239 gnorm: 0.163290351106 xtb: 6.4.1 (79825abcba525fcdf90b791dcacef51065a7a4e7)
C         1.08568796238005    0.99519016601231   -0.03412269447667
C         2.51703557350823    0.29476512121575    0.38250388680311
C         3.24764268353378   -0.39891093750357    1.77314844482772
C         2.26415025164645   -1.26787805491701    2.63085531974752
C         0.91909857736009   -1.05476222460378    1.98181452058865
C        -0.06302729577142   -2.03598261178390    2.60753369823676
C         1.11658287679640   -1.68468283314200    0.41558032925290
C         2.27866218151709   -0.98767647710048   -0.41240378166510
C         3.57244266932543   -1.71604307214962   -0.73866048940986
N         4.46075947470236   -1.06679472929788   -1.55669213502554
N         3.87993788591303   -2.91713321505337   -0.34653761394263
C         0.62164326499425    0.49709908268810    2.42720831430434
N        -0.61034979759943    0.86525823415454    2.62031266769354
O         1.66159931656887    1.21678777050736    2.82047369518034
C         2.21320951208114    2.42506491005613    2.21246217473820
O         3.31522488340980    2.28092143173334    1.28282237652727
C         3.51113182331302    1.40506780205767    0.13286756886608
H         1.33574674707720    1.41393313810189   -1.01408365958938
H         0.79605269376824    1.89603046927860    0.52920882745529
H         0.27007308486216    0.29645908131040   -0.18602499977402
H         3.62919781126893    0.37839353866220    2.44020067775260
H         4.11503818947557   -0.93905275393253    1.36065469278323
H         2.23190635840281   -1.02316678736881    3.69669015473048
H         2.60850267511139   -2.30428827321593    2.52254554139601
H         0.17264579492271   -2.99169209280721    2.14217131020117
H        -1.10249426036018   -1.73651775083083    2.38763644884672
H         0.14538533677920   -2.04725753374288    3.68301161506640
H         0.17909116059690   -1.47020884399106   -0.10894768627568
H         1.32239280947821   -2.76050944947132    0.55102247498014
H         1.73500331072742   -0.78423093738592   -1.35105324492427
H         4.38747126130845   -0.22479719414665   -2.09464622765324
H         5.05261503720423   -1.78347289785507   -1.96174014676419
H         3.14144266878149   -3.31258070252503    0.23171862820050
H        -1.41115850233080    0.36232266612343    2.23881569240659
H         2.76101845648618    3.01316291119853    2.95615749386261
H         1.53214142583882    3.09478876417131    1.67856989381300
H         4.56747516155282    1.13468991941049    0.07181056095690
H         3.38835071216254    1.99262431664354   -0.78358046561383
