38
 energy: -53.121502718084 gnorm: 0.155929238532 xtb: 6.4.1 (79825abcba525fcdf90b791dcacef51065a7a4e7)
C         1.15311183910486    1.21632966975089   -0.03096695052085
C         2.53176666370348    0.38523974909449    0.31764363176916
C         3.21622203723037   -0.35534425241618    1.70757948130088
C         2.42239194710352   -1.40308512097195    2.56203552822661
C         1.00081684112799   -1.18971852746294    2.10439460651700
C         0.00450395261673   -2.22600509572974    2.60674898592135
C         1.09605482436564   -1.56537314552637    0.44949191437174
C         2.21169446898488   -0.89140434353412   -0.45765642112356
C         3.45862404207418   -1.74250230832651   -0.63549960682706
N         4.30784925434090   -1.17618208729093   -1.55087050850030
N         3.71816333630981   -2.86105304818968   -0.02524163587834
C         0.65461619922211    0.39388431782643    2.36415595277264
N        -0.57320044530278    0.81810397497242    2.30810845330993
O         1.67406830728187    1.12952740963324    2.78088691527644
C         2.22915441534837    2.35539084252941    2.21253516517801
O         3.26607190654600    2.36934629146235    1.20058026139081
C         3.55331730238911    1.47415383710993    0.08522573556597
H         1.37010163547551    1.56808033548636   -1.04456719755816
H         1.00261281005648    2.14744547719332    0.53746742236780
H         0.27802907011287    0.57576594011907   -0.05183127967273
H         3.69847141938833    0.38690637783832    2.34886317298692
H         4.10498828999153   -0.82715173846538    1.25838967423853
H         2.49476662439650   -1.12852598916365    3.61858952606460
H         2.72523761531938   -2.44420706257406    2.39231418775018
H         0.47459906777217   -3.18571856022196    2.81518412217664
H        -0.78605742362926   -2.23306758199732    1.83636699863654
H        -0.44163091861275   -1.80989246522767    3.51671033160087
H         0.08807459098493   -1.41241988824081    0.04874186701664
H         1.09964854167271   -2.66888857646859    0.46809293922538
H         1.76266211994793   -0.70782654446035   -1.44896212836058
H         4.07081125439983   -0.26230463377425   -1.88608180268128
H         5.18919074537987   -1.66107994518010   -1.67773948578116
H         3.06151303655923   -2.97112837031437    0.74471160402657
H        -1.27740898226008    0.22014693539910    1.87646458752286
H         2.79507586183705    2.79279390333810    3.04166007006673
H         1.39326950378207    2.96823757709581    1.86162201160225
H         4.59072817214306    1.19763728833025    0.28525245964771
H         3.53707541955767    2.06606129655174   -0.83648821886504
