38
 energy: -53.133476469413 gnorm: 0.147727647477 xtb: 6.4.1 (79825abcba525fcdf90b791dcacef51065a7a4e7)
C         1.08202209023490    1.02319332726247   -0.03497775067304
C         2.54032775568052    0.34876122319612    0.32753409360258
C         3.27131591735789   -0.35123598545409    1.71480684768105
C         2.36193646959478   -1.29779163885979    2.57217706696822
C         0.96872448365865   -1.08737988520134    2.03317470207630
C         0.01571301077563   -2.06050657204418    2.71411722475305
C         1.15529010977966   -1.60355268766626    0.42455776903655
C         2.29561249288704   -0.93826836316803   -0.45797577311401
C         3.47938096479906   -1.84265842269289   -0.76063078997440
N         4.37328295872170   -1.32787350067565   -1.66381494756238
N         3.79271995694510   -3.02014472335614   -0.30645478065877
C         0.61255603914822    0.47095329210972    2.40716737246151
N        -0.56976897736742    1.00656245654766    2.33056637231587
O         1.63302078190355    1.20502957286305    2.82418267954581
C         2.16544184923252    2.44382869987268    2.26223073449082
O         3.32245393056267    2.35002732909703    1.39506886258720
C         3.43948128984458    1.55398754518206    0.17830248774056
H         1.19751113413318    1.36812468838875   -1.06739394480142
H         0.87176034404286    1.87359739114513    0.63236561673669
H         0.23505906486921    0.34590565930287   -0.01348098489422
H         3.57217111395551    0.52119610261394    2.30054880752539
H         4.11820578318024   -0.92953671750121    1.31153888006605
H         2.47691525633532   -1.19239430889001    3.65504291005659
H         2.61408759836425   -2.31282075135485    2.23962414084846
H         0.54450097406095   -2.95427676541050    3.04129101356614
H        -0.77286064659628   -2.31051396518516    1.98324551275887
H        -0.55728074801553   -1.56273039477231    3.50412527572843
H         0.15220751127421   -1.57935477593696   -0.01505478184296
H         1.48943026269453   -2.63444505777242    0.63364266923272
H         1.85342223393269   -0.63770732183376   -1.42345424501667
H         4.33378523364769   -0.38450467448037   -1.99880868422983
H         5.25482323334934   -1.80379466152691   -1.81992477036117
H         3.13299544501580   -3.40778214095070    0.36483872854639
H        -1.28458728198703    0.34749227742459    2.02325545152338
H         2.63632332838815    3.01083450265899    3.07205273883442
H         1.30169595442862    2.98689979115100    1.86670378880849
H         4.49396815205123    1.27101613200173    0.20434159646578
H         3.43787611221028    2.17542307100212   -0.72391153775175
