38
 energy: -53.122432149287 gnorm: 0.166065140815 xtb: 6.4.1 (79825abcba525fcdf90b791dcacef51065a7a4e7)
C         1.20847956608213    1.22120104227906    0.02747716385261
C         2.58058611195269    0.36991523658141    0.35238486859576
C         3.30559745316714   -0.39203264278299    1.70983080427780
C         2.41396859189462   -1.42706247938701    2.47907295881126
C         1.01647442392683   -1.08944383899066    2.02206091969361
C        -0.05463735274290   -1.99783337407803    2.61065006212522
C         1.04105488485904   -1.53122178358824    0.38098882921632
C         2.25449480061613   -0.90232776203281   -0.42762708650166
C         3.37600646532424   -1.83399561748105   -0.85778497660922
N         4.46639597499731   -1.16925337591314   -1.35675829684362
N         3.41304989205579   -3.13382593820389   -0.85805432653294
C         0.67261466161454    0.44836868723025    2.48251929811081
N        -0.50009998855155    1.00811035208182    2.43705532186934
O         1.80109685840968    1.03101854931840    2.85823879994689
C         2.20774267852105    2.37122090857649    2.44304933218877
O         3.31483804642470    2.31216713737244    1.51015176310490
C         3.50547200566928    1.56226086892654    0.27354574955650
H         1.13573312843327    1.22346791578579   -1.06472308233989
H         1.29246011483126    2.24960664147693    0.41228027251796
H         0.30079432444845    0.69208125796074    0.29704500414774
H         3.77138548681224    0.45390352074567    2.22186474292501
H         4.07477008183319   -0.85202441540431    1.06869097590871
H         2.57737991623425   -1.24956293661553    3.54618017522570
H         2.69996029090994   -2.43014426291986    2.13776456637727
H         0.36937080849784   -2.99865031543930    2.54687626235340
H        -1.02726612515752   -1.93403660383252    2.09252959949404
H        -0.20847280433252   -1.90033620275476    3.69094846875755
H         0.15983179490974   -1.23633934190984   -0.19910568532887
H         1.14410527104201   -2.62911402371154    0.42701548884214
H         1.80431732943063   -0.67557812467431   -1.40943292193126
H         4.34920199664763   -0.28220636684648   -1.80746750632838
H         5.15915744406339   -1.83799775755915   -1.67432244482972
H         2.59283547725012   -3.59727680017329   -0.47257308906745
H        -1.34019867178070    0.50011109331946    2.16146565594950
H         2.59532392038558    2.66387988215617    3.42446063180123
H         1.36066237472188    2.98103250437326    2.11440130321995
H         4.51503301106559    1.19123842955563    0.46281362852573
H         3.47274831286959    2.12371446608106   -0.66659990753443
