38
 energy: -53.119415408919 gnorm: 0.147551753112 xtb: 6.4.1 (79825abcba525fcdf90b791dcacef51065a7a4e7)
C         1.12573349902467    1.08025132960449   -0.15286916434669
C         2.54628159247407    0.35521181675200    0.25857916536827
C         3.34604438456667   -0.38905941884543    1.58345851187332
C         2.44874022119820   -1.22403044861567    2.56105295241235
C         1.04524369491709   -1.09404229236344    2.02333848062532
C         0.00913625806419   -2.02531114193773    2.63824405547253
C         1.15237735145784   -1.55223847926800    0.39009992881488
C         2.33744331895993   -0.96173378671016   -0.48667066385324
C         3.54299364808945   -1.85080137176027   -0.74558466458459
N         4.72610832895451   -1.26308890675507   -1.11251737121139
N         3.56725103067678   -3.11921849128583   -0.46017136511262
C         0.51065777554282    0.42489923614532    2.34296846039919
N        -0.68948941698114    0.87681593583435    2.55757357071228
O         1.54108721534732    1.18688116554367    2.67720905251413
C         2.09711380784074    2.46667976784493    2.24496441240769
O         3.27358203773150    2.35342548937748    1.40678701871357
C         3.41069951453150    1.59146963483058    0.17045485275447
H         1.00573403406399    1.00428426223704   -1.23823900502482
H         1.19949398787352    2.11190967192248    0.22526401303164
H         0.20416077616765    0.72546758260663    0.29586156670048
H         3.81956605874120    0.37987212244292    2.19930487729793
H         4.07695507176131   -1.05139482639487    1.09217385730223
H         2.48963107155775   -0.80530105684719    3.57096423163224
H         2.77146822173243   -2.26424662652532    2.69615535756199
H        -0.06185302426637   -2.99920576680840    2.15660690670023
H        -0.96190643876151   -1.55643032898969    2.40212450784384
H         0.28527862498827   -1.98427405522190    3.69761983896151
H         0.15094657473465   -1.48631454740172   -0.04900126729448
H         1.25181224744209   -2.64808503588580    0.47576341362883
H         1.97661903077211   -0.82460562589883   -1.52060467738697
H         4.72556081303910   -0.44817559579769   -1.69530516358747
H         5.43600049973351   -1.94539461770881   -1.35437789007034
H         2.64233610210791   -3.52628643874306   -0.33785114464511
H        -1.37331230303766    0.12044552821166    2.54928003320334
H         2.56649562841303    2.78591280220408    3.18134446652005
H         1.25187030561487    3.09769415788838    1.95374455005445
H         4.49154786558332    1.43508436474519    0.16848434133094
H         3.13558357852921    2.21674307916891   -0.68600249395389
