38
 energy: -53.121804487069 gnorm: 0.153663433437 xtb: 6.4.1 (79825abcba525fcdf90b791dcacef51065a7a4e7)
C         0.99457078472501    0.97233460209294   -0.13558380192287
C         2.46286488950313    0.39744539746772    0.34038230977526
C         3.27519619599235   -0.35442483011293    1.65327015982067
C         2.37998897873381   -1.25788371615023    2.56999714271184
C         0.96729816351032   -1.10359435784022    2.06370103690788
C         0.01648990109487   -2.02513636162818    2.81577358830403
C         1.16929471633780   -1.65036314620917    0.46710126309521
C         2.26497623205521   -0.91474384463154   -0.41615979671863
C         3.45333422687621   -1.78160941586661   -0.79979844342299
N         4.43651383227938   -1.13284145002223   -1.50141366198686
N         3.76331163529018   -3.00177233975242   -0.47414891791570
C         0.53462148755375    0.46757412967920    2.26206754586888
N        -0.61675141245837    1.07137454690601    2.24199673219788
O         1.62036065046933    1.12240798449786    2.64479611393421
C         2.21287953430270    2.39825491623476    2.25106848101679
O         3.47052254806065    2.14396011489198    1.57793135501380
C         3.43137605974489    1.55336276492527    0.24468063124023
H         1.17961918339673    1.28965312808907   -1.16673102922545
H         0.67554599230305    1.84961088933544    0.44867105685004
H         0.08983453350261    0.37685295845087   -0.07743754795099
H         3.82486632021993    0.36270366638079    2.26835935084075
H         3.96562295767771   -0.93803515182904    1.02319943320383
H         2.53158533417946   -1.04557459040867    3.63248033621400
H         2.76636193881749   -2.27012716721762    2.39525486390773
H         0.64332209896693   -2.88041906229818    3.06287167317096
H        -0.83918324160963   -2.39067061344170    2.22185966684050
H        -0.20335895154289   -1.52480258749347    3.76527255704554
H         0.19302483276486   -1.61253164279438   -0.02836350121555
H         1.53937349863584   -2.66648192961978    0.68766765192548
H         1.84077309514626   -0.75789099226025   -1.42287064805217
H         4.66293038616153   -0.18281514435038   -1.27800555261546
H         5.20081523482081   -1.77623007991674   -1.67426889321402
H         3.00674762527415   -3.53840587875071   -0.05490016236083
H        -1.37112617878403    0.45412814498258    1.94248996494097
H         2.49864086549371    2.90107452138719    3.18088003927415
H         1.55154804511033    3.08498063835823    1.71397147580152
H         4.44352999436436    1.17821529899066    0.07884277493140
H         3.08134190343068    2.33211262823481   -0.44175916614014
