38
 energy: -53.127276776662 gnorm: 0.155193111374 xtb: 6.4.1 (79825abcba525fcdf90b791dcacef51065a7a4e7)
C         1.13529176591233    1.17324155936604   -0.13650816795515
C         2.53587969935044    0.38558327529974    0.22526078162891
C         3.31188968375080   -0.28781278363830    1.60120109269105
C         2.43646929385587   -1.28499038193146    2.43624495386189
C         1.01773765842498   -1.17820407070229    1.93461409591431
C         0.06700954855623   -2.14760340776429    2.62401247297106
C         1.01976409810932   -1.48977923442759    0.26374415565331
C         2.30190647594235   -0.94073064825932   -0.49550573542816
C         3.47658468321663   -1.89996108040771   -0.59960820741613
N         4.56780834079813   -1.28330162293964   -1.15527714368881
N         3.64435880159735   -3.17413760473741   -0.40147393460657
C         0.67203745204590    0.35745085185908    2.40085881101964
N        -0.50317706857417    0.80005680409998    2.73791691072193
O         1.65095572727077    1.17527775149121    2.75722411294272
C         2.09369234567975    2.46028251711854    2.22184341524740
O         3.02816772704375    2.54448928677765    1.11771011846610
C         3.50938112323274    1.54019924757914    0.17551569466825
H         0.61228426131498    0.73520491293252   -0.99253713969626
H         1.33444929032557    2.19038997404717   -0.50865011024869
H         0.43977618648380    1.24111539684320    0.69305694748332
H         3.73350549890690    0.49750402009939    2.23386439871156
H         4.15973659432305   -0.82869006825776    1.15077172517351
H         2.47076237115258   -1.02645127092609    3.49874609323477
H         2.80506922673550   -2.31001841334899    2.30242658414046
H         0.12344496362666   -3.15396226705455    2.21225836381728
H        -0.96060248325046   -1.78835575708792    2.44103650342180
H         0.20292911831917   -2.24143890473792    3.70703438235452
H         0.05909020334110   -1.04630984060483   -0.01991057012160
H         0.97076146745133   -2.58681520609112    0.15321803401457
H         2.01688345253994   -0.77356514337586   -1.54851827813395
H         4.71947289506510   -0.33672196922478   -0.86422655482458
H         5.41902820126264   -1.83381721312183   -1.17376565043651
H         2.78618917140941   -3.56083737674532   -0.01399186810086
H        -1.26601855062223    0.15746625862898    2.52595233964008
H         2.55419185311586    2.92596290208395    3.09940743312049
H         1.17560201909100    2.97464417431598    1.92189844435892
H         4.54269901303109    1.31318225566920    0.44645999838493
H         3.34325019950092    2.00448628895493   -0.80275467341412
