38
 energy: -53.123376372594 gnorm: 0.162610345000 xtb: 6.4.1 (79825abcba525fcdf90b791dcacef51065a7a4e7)
C         1.08829093867602    1.24292461194613   -0.00212885403082
C         2.45716747641803    0.41157446797182    0.38253053721049
C         3.31912183135959   -0.37101810300708    1.64484944106885
C         2.41411236302450   -1.36416332639662    2.45271248070547
C         1.01831770942286   -1.15317051271119    1.92066398753771
C        -0.06593416313021   -2.02592017652949    2.53839778653881
C         1.05681019503598   -1.55051771180608    0.26853715208067
C         2.24498445465815   -0.82219330797332   -0.49277048950316
C         3.41840416132322   -1.75213026935967   -0.75570139643332
N         4.21107987098138   -1.37317133408608   -1.80825127586198
N         3.57292174297233   -2.97841142791781   -0.35160983765153
C         0.77949886788780    0.41918508756011    2.32783992455480
N        -0.42242620699725    0.91518231241825    2.32736327545663
O         1.78370508528820    1.03241525175525    2.93581747847214
C         2.28341097208181    2.34384054882063    2.53042483512586
O         3.43481286672307    2.16704906607498    1.66876142704233
C         3.41129116278877    1.58224599542914    0.33259255509047
H         1.34746060855801    1.58926668775262   -1.00765200519537
H         0.92669349457220    2.20858916342874    0.50197676165485
H         0.27315053939508    0.52763792542210   -0.02306079148009
H         3.76744341779293    0.29077442589621    2.39035841673680
H         4.14162509996190   -0.88966633041010    1.12641755960946
H         2.33895586088642   -1.06525611998894    3.50244251374658
H         2.76437197008614   -2.39610984792468    2.58255969988210
H         0.15066769338158   -3.09213491667452    2.49651315148871
H        -0.94372374506811   -1.78638833807966    1.91338936835129
H        -0.13813438168086   -1.80950581221014    3.60992363454048
H         0.07793356773158   -1.33187736163100   -0.17193574785374
H         1.20257041090802   -2.64024691169364    0.36522966712929
H         1.86224999944665   -0.45507167438686   -1.46063095649261
H         4.44516204111959   -0.40242355985390   -1.88936793197930
H         5.00049549952356   -1.93752777030064   -2.10203565420546
H         2.84601523665219   -3.25041349735624    0.30699169623164
H        -1.16271178717644    0.26828493096586    2.05666094202440
H         2.62819128283483    2.75313475073339    3.48574751529625
H         1.50220945816499    2.96998572743948    2.08873358381615
H         4.43130656663037    1.19224786804166    0.31980821475669
H         3.29651989704587    2.29732260406180   -0.48939761543964
