38
 energy: -53.122659332304 gnorm: 0.158115980462 xtb: 6.4.1 (79825abcba525fcdf90b791dcacef51065a7a4e7)
C         1.11673886563345    1.05666524850833   -0.07151722542172
C         2.57696076138596    0.37454517086197    0.26817838621934
C         3.29855071956009   -0.32919703772163    1.65847342025142
C         2.46690183363350   -1.37284047280604    2.48138943485434
C         1.05450377896630   -1.17000285886274    1.99167022560023
C        -0.04229562273187   -2.04671509031851    2.58098836019873
C         1.06235843652012   -1.49225979878202    0.32284480361620
C         2.26368923615221   -0.89267232211123   -0.52515459447828
C         3.41374508874911   -1.87510341672352   -0.67691064142622
N         4.52590942625319   -1.18926945504667   -1.09227576159953
N         3.65817553480299   -3.12657569768834   -0.42195568486758
C         0.70522160039047    0.37323246914834    2.42934072792644
N        -0.47663016211672    0.85951476591784    2.66890968282068
O         1.74624159787275    1.14751460281212    2.69557858430116
C         2.02665304540455    2.47826047568083    2.16231475627257
O         3.19298235534459    2.43687509062101    1.30358979281702
C         3.45253537822323    1.59917547630653    0.13791971512020
H         0.79819014428484    0.63176621459683   -1.02869332127031
H         1.41864990934910    2.08898525227393   -0.30796886607852
H         0.27156719252769    1.13330632059706    0.60401074600113
H         3.67102546798039    0.39177097100083    2.39073902746602
H         4.21313023901691   -0.74075180846400    1.20191433339293
H         2.59840534118261   -1.20130405996347    3.55386751510202
H         2.77132016336978   -2.36824153925110    2.13359362574644
H        -0.07943155711024   -3.04264757786970    2.14255483317295
H        -1.03796254511639   -1.59723833263878    2.42242106163621
H         0.17097337294994   -2.19628225869435    3.64511320537632
H         0.08069226017856   -1.28004986793414   -0.11455419942438
H         1.10084630164799   -2.59526132130208    0.32624089511922
H         1.92164994493135   -0.76768405513741   -1.56698226025359
H         4.43994860037414   -0.20520188654888   -1.25945044868178
H         5.32942469706252   -1.74869173916165   -1.35570394035502
H         2.91890137438960   -3.59870354944858    0.09447744602169
H        -1.27627969477492    0.22858530153620    2.71652631548059
H         2.40828361632779    3.05763784057578    3.00949632105208
H         1.09541681152275    2.73291386870484    1.64716868205572
H         4.48831538308560    1.29361885710067    0.30067208157173
H         3.45118148302211    2.12763894742992   -0.82171529846614
