38
 energy: -53.126514046164 gnorm: 0.162274690206 xtb: 6.4.1 (79825abcba525fcdf90b791dcacef51065a7a4e7)
C         1.06080673278243    1.00100598988924    0.07353587587247
C         2.56319583190588    0.36018766587651    0.28592180351484
C         3.32704644115201   -0.32503064873081    1.66282905732246
C         2.38362475460117   -1.28215462911785    2.47022702555709
C         0.97388356779932   -1.11966877496975    1.95830473746758
C        -0.07154323523740   -2.02376340620209    2.59751115715236
C         1.09183969714818   -1.65670726255880    0.35002442354054
C         2.23054223454321   -0.92081503173139   -0.47679054420581
C         3.43043559104771   -1.82549750957989   -0.70621331065267
N         4.43776080051670   -1.14579228142357   -1.34111696781030
N         3.68990231578667   -3.01969549564787   -0.26180431090979
C         0.67262470132859    0.45459075214961    2.31338056996647
N        -0.51122450523652    0.99224888963809    2.32126308504283
O         1.77775451430303    1.05375145141374    2.73028897572747
C         2.23087142233646    2.37350033368949    2.29804665017770
O         3.38567383920876    2.31694384010448    1.42473220690762
C         3.43178529218991    1.59030578893770    0.16070450686767
H         1.15888514883587    1.18306121922027   -1.00137578747435
H         0.80230734620822    1.97632457024939    0.51475687485448
H         0.21231090451178    0.33030981566886    0.15568532776391
H         3.80390243271768    0.38629298226527    2.34207296578500
H         4.12608999475183   -0.82296593998273    1.09023052126284
H         2.39290544261096   -1.08081695678165    3.54554287187325
H         2.65922185696626   -2.34248427392612    2.40539638556049
H         0.38411488817906   -2.99991127771938    2.75561102954149
H        -0.98175276324817   -2.30810459471004    2.04145876204744
H        -0.50943698667348   -1.54636833950378    3.48100349163239
H         0.06938494920342   -1.53936163652706   -0.02525644117308
H         1.44144656752644   -2.70029501354917    0.43251596190319
H         1.79934716500483   -0.64204055795505   -1.45371093630365
H         4.29808681009516   -0.19025267318658   -1.60787688728395
H         5.25874852161400   -1.68439417927507   -1.59384537428382
H         2.94648608986989   -3.43274112781528    0.29753440475685
H        -1.29745410539172    0.37454168491652    2.12111429783996
H         2.72731882570504    2.81336922936218    3.16930548656703
H         1.42204450904745    2.96262683953237    1.85515418703184
H         4.48608033966221    1.34687002488177    0.01273704107544
H         3.18767486257549    2.35556769915209   -0.58425129447602
