38
 energy: -53.125796567979 gnorm: 0.151334894742 xtb: 6.4.1 (79825abcba525fcdf90b791dcacef51065a7a4e7)
C         1.22691322179386    1.27650266665625   -0.01104093381671
C         2.58451019380954    0.42456352031709    0.36851018816247
C         3.28983533460518   -0.39714113507396    1.70124548623327
C         2.41253197698361   -1.30875802394827    2.62715894570179
C         1.04381294281373   -1.13282447081525    2.01765760718927
C         0.02254579195070   -2.13427513704440    2.54015078859279
C         1.13971797113072   -1.49078267060978    0.35887560594097
C         2.28437801356499   -0.79811221845832   -0.49655696574097
C         3.36388215502486   -1.81384697728508   -0.83387426422377
N         4.07481365807987   -1.52012386652727   -1.96882318539947
N         3.62557534711744   -2.97166545559956   -0.30292773877374
C         0.60070099798425    0.41010559283400    2.36138344826070
N        -0.62830597415165    0.79290309674562    2.54480999599891
O         1.60122379659326    1.15630499852338    2.80439433257771
C         2.22545663525481    2.40792651109581    2.38289413758102
O         3.43831781234856    2.31024299153027    1.59621054893599
C         3.55796977695185    1.57991289194132    0.33915187579019
H         1.33611459927246    1.78970645200520   -0.97171543064865
H         1.08323091252670    2.16816199395105    0.61907276837842
H         0.38564902646486    0.59181922366087   -0.01423460412245
H         3.95333439658718    0.30856891926395    2.20769148276896
H         4.03637185926230   -0.93441739302004    1.09437097044848
H         2.37994972454401   -0.99661752147916    3.67522090056778
H         2.78401159946651   -2.34125294132960    2.60683998497630
H         0.28541996885674   -3.19025957467542    2.50439336874780
H        -0.90828928790893   -2.23000482145512    1.95456779087965
H        -0.20298036809929   -1.82515390483498    3.56669728612837
H         0.14557602449166   -1.23910082761481   -0.02629641677956
H         1.29368364104670   -2.58366657637226    0.35674057433098
H         1.89266371406527   -0.48916721445619   -1.48100134762133
H         4.21492652793128   -0.55319285517871   -2.19049506968359
H         4.79347861205303   -2.16752271063441   -2.27276381898066
H         3.01191947247874   -3.16455253422234    0.48596719791427
H        -1.24299923693306    0.01844311430871    2.29552572227315
H         2.76147722065113    2.82533425369525    3.24166613092011
H         1.49424249899718    3.03720644716319    1.86640851650486
H         4.62376983515134    1.34166333787926    0.34003550417286
H         3.38527498981951    2.33746442194352   -0.43316090864080
