38
 energy: -53.127530912194 gnorm: 0.150206410783 xtb: 6.4.1 (79825abcba525fcdf90b791dcacef51065a7a4e7)
C         1.28043221512855    1.21835700459810   -0.03777145122630
C         2.60769062492551    0.30563689386455    0.30611229734104
C         3.23138525153629   -0.48735790836689    1.69572725863984
C         2.30442301097186   -1.37872080083280    2.59251902519825
C         0.91946945951970   -1.09523534981503    2.06585409421057
C        -0.15268965654636   -1.99382118028507    2.66744155186203
C         1.16840659439004   -1.63186680056424    0.47244689444363
C         2.22237851416302   -0.93850137334908   -0.49201740325424
C         3.40924915514949   -1.75139766965997   -0.98330849873646
N         4.08109132184229   -1.06429772948696   -1.96122858504928
N         3.80918307001630   -2.89102757848566   -0.50140840597506
C         0.60010387077461    0.46735815975323    2.45500178275384
N        -0.60304711711319    0.95940337196111    2.48592990115010
O         1.67920955431775    1.11024908745507    2.87493061456918
C         2.30784186307190    2.33127321402389    2.37712848823110
O         3.44317053215855    2.26376442510861    1.47939983335190
C         3.60630318441871    1.43953439412427    0.28695371629562
H         1.46438097836358    1.39660319811037   -1.10200343369864
H         1.10860021950212    2.17068448702176    0.48786185268091
H         0.42932587610602    0.54610427287118   -0.02289418572314
H         3.74933885978740    0.23605720286826    2.33066022768607
H         3.98087778779255   -1.08718669934361    1.15466755844428
H         2.27774729297459   -1.10634497394238    3.65177677310949
H         2.61343565077336   -2.43169536966553    2.57797693935014
H         0.17501857480633   -3.02497432645108    2.78915868548691
H        -1.09858201943930   -1.91606997595586    2.10373244963817
H        -0.33032200858847   -1.60456345131222    3.67597556862472
H         0.19961837464573   -1.67842427949107   -0.03676938599152
H         1.41548806619789   -2.70697162383981    0.50716818833805
H         1.62663773349740   -0.68547776607698   -1.38593564419911
H         4.16393220870054   -0.06589013461757   -1.95449943689828
H         4.95332644036657   -1.55967096172852   -2.10886244068282
H         3.25542852836954   -3.25622263666046    0.27068138978613
H        -1.28485592765443    0.21682770506393    2.33264310892105
H         2.71947048100495    2.57054952474452    3.36320422539833
H         1.54661693342845    2.98278928551244    1.93725559670362
H         4.65199616296953    1.13008716866175    0.34579252725901
H         3.54708495388722    2.10129965334902   -0.58410012131572
