38
 energy: -53.126474150120 gnorm: 0.141300402383 xtb: 6.4.1 (79825abcba525fcdf90b791dcacef51065a7a4e7)
C         1.17477427866282    1.22416949618594   -0.04638003453490
C         2.55558864685618    0.38010278147936    0.25993997167166
C         3.32180916553487   -0.34825912712908    1.61318071287526
C         2.40769974851738   -1.30790623783377    2.45073886244778
C         0.96501741015626   -1.14046368362089    2.04273527489412
C        -0.03595495458631   -2.09175840014707    2.68459336187585
C         1.02677571301611   -1.51042767007157    0.38496506649248
C         2.22139236689370   -0.91602840510609   -0.47607173353427
C         3.40179393002696   -1.83304979059156   -0.75275413039866
N         4.37578059341411   -1.16807685363391   -1.45201580375780
N         3.55743355675099   -3.12151697019583   -0.67176163845684
C         0.63520664675053    0.40090457369598    2.50157893809975
N        -0.51494956487364    0.98469776633222    2.66578467356900
O         1.70694756237045    1.11071220396334    2.82042464212734
C         2.17738190792220    2.36010900624112    2.22747893177569
O         3.35719073421970    2.29477249154146    1.38889224088204
C         3.53616735303192    1.52564509826783    0.16239088631046
H         0.83261744964579    1.03744478412649   -1.06924910610635
H         1.34267658412890    2.31243701401799   -0.06144196849888
H         0.37916374642024    0.92977861865604    0.62953782357878
H         3.62190074707669    0.39097002354305    2.36032898484245
H         4.26760785644699   -0.80664532348678    1.28208231063412
H         2.53110303945468   -1.19380322668769    3.53179356965699
H         2.80478786656610   -2.32152386282854    2.31161280877372
H        -0.21246949454125   -2.95215392314350    2.04112874149377
H        -1.02464455520423   -1.63701475021002    2.86959780815603
H         0.42888657568012   -2.50625443129049    3.58588747565844
H         0.12093722629837   -1.46424582861511   -0.22931767654699
H         1.31845109736104   -2.56033479917605    0.56025256326983
H         1.73743068739318   -0.83356204669486   -1.46450394280411
H         4.57448191998684   -0.18734077017338   -1.40302466207986
H         5.19175187791614   -1.75391633800774   -1.58973817749552
H         2.75967541022783   -3.55705349195145   -0.21347782504356
H        -1.33328394589751    0.38783524525999    2.54804479004735
H         2.61538360953607    2.79128774678658    3.13372174471283
H         1.31220799208350    2.93306033107573    1.88016694307090
H         4.59148825847350    1.24540632346331    0.18377797793664
H         3.43086010060999    2.15515711327938   -0.72800219852502
