38
 energy: -53.132364538454 gnorm: 0.157525810361 xtb: 6.4.1 (79825abcba525fcdf90b791dcacef51065a7a4e7)
C         1.18029558402765    1.11959329778353   -0.19837692140026
C         2.51731836861629    0.33613126963904    0.35973258394738
C         3.30908374201968   -0.40889492145139    1.68898388872240
C         2.44435797673152   -1.33008701739577    2.61724933600449
C         1.04472758387482   -1.18939834651227    2.07220094385986
C        -0.07484863693334   -2.00023759191921    2.71093246143951
C         1.13226349549408   -1.67282591987516    0.44507931100592
C         2.24405395107045   -0.94565053450023   -0.42494469927936
C         3.47040700473668   -1.79954308894912   -0.70379044882897
N         4.28633574784289   -1.16478170774817   -1.60442588887644
N         3.75798116103066   -3.00016529977097   -0.29545409871087
C         0.72180802340674    0.40962972083573    2.25648612050565
N        -0.44710875965063    0.97761403467430    2.29728736403658
O         1.70724499693222    1.11601470658831    2.78945169575700
C         2.07643424370245    2.43061594747857    2.27040606984635
O         3.24842909572025    2.37366562796597    1.42032953936412
C         3.47482283203145    1.50187598094588    0.27288723303500
H         1.35922249219911    1.22236726853471   -1.27337516739671
H         1.10589459699841    2.17190654897245    0.11760654495277
H         0.18895720249454    0.68692533004975   -0.11729858283160
H         3.89531374289217    0.32197953482133    2.25192451222282
H         3.97955593991417   -1.04903645526585    1.09319442461770
H         2.50900453709688   -1.10223592655609    3.68534664181894
H         2.79214949623810   -2.35270249003638    2.42294445662292
H         0.30118293958163   -2.98657843871348    2.97779675046099
H        -1.00587492526921   -1.99293778010408    2.11792122260953
H        -0.37563387179339   -1.60722489916782    3.68831926072289
H         0.11654062673049   -1.56702815348398    0.04867884842443
H         1.34421667500262   -2.74504196351830    0.59848666687544
H         1.83592324739958   -0.86183955614974   -1.44691480454552
H         4.22635386528498   -0.16568377784273   -1.64837040972633
H         5.23451916640976   -1.50997716510703   -1.70328330942888
H         3.08125766447445   -3.57152247289432    0.20627337588165
H        -1.23184962507303    0.36975316991956    2.06390857506123
H         2.41243518823217    2.98394323045124    3.15356455826828
H         1.14577978544241    2.84636716854483    1.87233829217305
H         4.56426653353194    1.42877239479240    0.25140059273067
H         3.15941039428318    2.01715479868508   -0.64099327915388
