38
 energy: -53.119734479250 gnorm: 0.158559905623 xtb: 6.4.1 (79825abcba525fcdf90b791dcacef51065a7a4e7)
C         1.00980791258191    0.99931181406672   -0.19727166789112
C         2.44766068064263    0.34035798909042    0.26238928156529
C         3.20428422428961   -0.35799695915966    1.63668425481279
C         2.39571758513718   -1.32921401599218    2.56457417875345
C         1.02606543889306   -1.07374150961897    1.98610801653090
C         0.00678182269885   -1.96332095286720    2.68510621923084
C         1.06646399561080   -1.56776390329578    0.36031609493423
C         2.25979442295635   -0.96986975168372   -0.50008433813567
C         3.50363540471040   -1.81538658240657   -0.72096926419748
N         4.50983773671526   -1.24189502953673   -1.45477456907666
N         3.73678128582047   -3.05952645561283   -0.42316035978285
C         0.69282450977713    0.46841601454243    2.43979233501139
N        -0.50519382856565    0.97377046957964    2.44230125232718
O         1.69132380298329    1.19092641863400    2.92465926547491
C         2.19894638661991    2.41033057142686    2.30075358661815
O         3.35876867728869    2.28459601647198    1.44142335325996
C         3.43657366322183    1.48229386120183    0.22563028217841
H         1.05324244965901    1.53617103427175   -1.15021142171802
H         0.76835005155085    1.71063271498990    0.60800153065415
H         0.16086609749719    0.32460302484907   -0.22162134104705
H         3.62555365852318    0.46866153090614    2.21453635404535
H         4.05772637518083   -0.89216716820196    1.18882498775402
H         2.47019693853792   -1.01735882710287    3.61057911562565
H         2.69704817341344   -2.37077719971428    2.39486340595973
H         0.26466067986210   -2.98850216160172    2.42436391170407
H        -0.98401076621458   -1.86121269439634    2.20926010657772
H        -0.09956879862193   -1.70372752431169    3.74412297588281
H         0.12021040008720   -1.49926265729381   -0.18734359839867
H         1.20396383793381   -2.63369806021070    0.61128099439067
H         1.93963185536191   -0.80821505295302   -1.54381875721754
H         4.60197883584308   -0.25591599898740   -1.60669884838400
H         5.39344202548553   -1.72646288067471   -1.34332076618446
H         2.85925239583983   -3.49764597326147   -0.15089483412171
H        -1.14684555659858    0.23372216791466    2.15876943358528
H         2.63217903692706    3.03745769086323    3.08692002978907
H         1.37584694937195    2.97849633016565    1.85677190130540
H         4.52371529084748    1.39525535851207    0.16870248757140
H         3.11581343868245    2.13819895950798   -0.59111706889320
