38
 energy: -53.121669036628 gnorm: 0.155330022083 xtb: 6.4.1 (79825abcba525fcdf90b791dcacef51065a7a4e7)
C         1.10031524520867    0.89498864031557    0.00648040501641
C         2.60308308912736    0.30701650495652    0.33649023491520
C         3.31584275186652   -0.36785796951640    1.74552663227260
C         2.30883980127167   -1.24610893964818    2.56567451700553
C         0.90702291028521   -1.07864490720355    2.03397773638328
C        -0.17794368245288   -1.94841663702951    2.65464974957393
C         1.18773928228643   -1.62202344526834    0.44815694487443
C         2.35001069701390   -0.98980422778771   -0.43003882564999
C         3.55724127789670   -1.86127117649154   -0.73658228829863
N         4.48140134716459   -1.29130159516714   -1.57376133347014
N         3.85435387140190   -3.11223621634934   -0.54230998801970
C         0.53850722335526    0.48537302982635    2.37038942905476
N        -0.62797528876911    0.99766507049695    2.63022156957092
O         1.57333120152007    1.24867036747863    2.68761890100753
C         2.23388657350772    2.46987957668296    2.23352628763064
O         3.36260996740396    2.37797358455181    1.32965564411381
C         3.36372352941099    1.59130367231964    0.10122398147844
H         1.18081775482218    1.05171495780658   -1.07386896941440
H         0.91169545448845    1.91363535050071    0.38001178929719
H         0.24415918637483    0.27002143299615    0.23656702640262
H         3.70816239599954    0.36918552427226    2.45093248461293
H         4.18561749184968   -0.94541545591005    1.39310858552580
H         2.41919902628657   -0.96324496924773    3.61673872468322
H         2.68991949702435   -2.27479039309187    2.59805431809730
H         0.22768801216077   -2.95715475328634    2.59638395815808
H        -1.16038620521332   -1.84102039338442    2.16291984874337
H        -0.34832780248364   -1.67868525355185    3.70270982435371
H         0.27192137082157   -1.47582654441660   -0.13487260106234
H         1.34581595702451   -2.70768354101728    0.56840301842566
H         2.07084213091303   -0.85820193265931   -1.48964421730535
H         4.49624799350755   -0.34314725430507   -1.89703913537568
H         5.35605701095332   -1.76378203592404   -1.77307060946292
H         3.23367020361851   -3.60909987168573    0.09330976153284
H        -1.29907966748069    0.23803621979026    2.51903865888553
H         2.64671393384069    2.89110547153857    3.15611987932020
H         1.41596670457193    3.10394199934635    1.87800318842291
H         4.44190609847560    1.54568132850841   -0.06650894945347
H         3.04980534945938    2.23934405650588   -0.72441145512117
