38
 energy: -53.127117840393 gnorm: 0.160663506761 xtb: 6.4.1 (79825abcba525fcdf90b791dcacef51065a7a4e7)
C         1.18678440705862    1.14703914718776   -0.22161542211064
C         2.52332481646263    0.36705242185391    0.34248506293403
C         3.25132870403476   -0.35002603790199    1.72258444702705
C         2.33398659877919   -1.37685782299677    2.47233255628449
C         0.91876465868583   -1.14537181443984    2.00393380389383
C        -0.01232165311635   -2.05537396331876    2.79378411336670
C         1.06264649886864   -1.55949289927479    0.36177324909198
C         2.29706290243090   -0.93722413284613   -0.41976468982879
C         3.48603848385463   -1.84535530446194   -0.68895621432671
N         4.27780479074539   -1.22339326857895   -1.61958786487825
N         3.83381024298303   -3.05416618472919   -0.35916504682225
C         0.64735309609139    0.42766720298623    2.38735632356060
N        -0.53766008576322    0.96138730853849    2.34831837929323
O         1.70887209768490    1.09307392369769    2.81692514310504
C         2.17057538775347    2.38889050238040    2.32542240630814
O         3.34590192970741    2.30136381797225    1.48257486534135
C         3.49406174090704    1.52200742675118    0.25842314126952
H         1.43412894354028    1.05105323070046   -1.28359750796309
H         1.13820575688196    2.22556360984014   -0.00443038872832
H         0.22532016070391    0.66780169608713   -0.07179876851396
H         3.72558327514430    0.43293389261201    2.31991315564039
H         4.12184250704123   -0.89869592654691    1.32831764599640
H         2.35532047715903   -1.21389943719544    3.55395938359823
H         2.78346483727078   -2.35023151084679    2.23787849133301
H         0.34474465670878   -3.08395400003332    2.79714836990156
H        -0.99899554351994   -2.01476741316901    2.30047760252309
H        -0.09908592297303   -1.74550317847804    3.84100316714863
H         0.04620432776192   -1.34885031966687    0.01178117549420
H         1.11686710966429   -2.65666655069108    0.25511814784217
H         1.81307912364219   -0.67872182643008   -1.37734189880432
H         4.13515836326944   -0.23195470857251   -1.59891894028050
H         5.22445635441939   -1.55782852964637   -1.76096807228207
H         3.17278890149083   -3.51006929530770    0.26640454561921
H        -1.40962345210125    0.49929777971257    2.09154637934119
H         2.40402905320206    2.96956446106528    3.22395107433931
H         1.37729937957551    2.90372083843572    1.77488843562564
H         4.56790442921277    1.32375596486107    0.24256014169095
H         3.38881480879278    2.19132940994013   -0.60245200324592
