38
 energy: -53.130079482882 gnorm: 0.151160834513 xtb: 6.4.1 (79825abcba525fcdf90b791dcacef51065a7a4e7)
C         1.17856659029977    1.25969449426707   -0.06497435978913
C         2.51369923990293    0.39081466312497    0.35383052568830
C         3.30450363220408   -0.39539203704142    1.65972978946985
C         2.45131603739838   -1.45834895467094    2.43446573054585
C         1.02277086956540   -1.16847567731930    2.04579047418573
C        -0.03621313890404   -2.03650975278374    2.71209283488147
C         1.05115647185064   -1.45193721586975    0.37016123434443
C         2.22971280251841   -0.84208528132057   -0.50212852325022
C         3.37065771680948   -1.80725854356187   -0.78054279439644
N         4.42411886863250   -1.13277724853148   -1.34188092617101
N         3.45558460634252   -3.10473238195503   -0.79728247603374
C         0.69634902244985    0.39081928663386    2.44224573997456
N        -0.46230596917646    0.98077807669952    2.43201955002390
O         1.77154301269098    1.04273692222480    2.85827378551828
C         2.21538458416752    2.33999140344024    2.35426888772294
O         3.30988615787664    2.38716583406463    1.40596184521896
C         3.54861400823544    1.48944971995396    0.28123523574284
H         1.18903972381325    1.22154974586635   -1.15888196464730
H         1.35708320748750    2.30554895567992    0.23009258613239
H         0.18726644195941    0.99769575613010    0.28887267974889
H         3.76746594795980    0.20273553425381    2.44881440320300
H         4.14582996143987   -0.96637739854845    1.23496520435671
H         2.61967238069802   -1.43916031926116    3.51530572078037
H         2.54002387542567   -2.47300966922522    2.02574787636639
H         0.18449109564279   -3.10004451012758    2.63680662049053
H        -1.00094031323279   -1.96348521844205    2.18059075867406
H        -0.16654415667286   -1.83884974828594    3.78174699974630
H         0.08339523792177   -1.21428190750151   -0.08478665622183
H         1.00098101084988   -2.55285050485229    0.42997395447909
H         1.64171467566687   -0.72512253474906   -1.42873294713667
H         4.51664061804779   -0.14009840735832   -1.24311827239557
H         5.24599199621781   -1.63409325671710   -1.65998673451622
H         2.59183566957533   -3.53306276619771   -0.47077821577688
H        -1.16964487501962    0.29520807976630    2.16849693612526
H         2.62804604555271    2.72388600727526    3.29308307622303
H         1.30590716426780    2.85505309298239    2.03025187001758
H         4.56447863311814    1.13608682751584    0.47056861445224
H         3.51513175416545    2.08278879838007   -0.63909216267075
