38
 energy: -53.129552824160 gnorm: 0.153618277845 xtb: 6.4.1 (79825abcba525fcdf90b791dcacef51065a7a4e7)
C         1.12726764904827    0.98417273410808   -0.01576739154397
C         2.54452043500944    0.25192312983040    0.39427402073685
C         3.32698909231523   -0.40770762385121    1.77322127870438
C         2.35310520660296   -1.29313529868698    2.62503715703181
C         1.00446036324023   -1.11718884710237    1.97232264448373
C        -0.22238887984636   -1.81319026249420    2.54617988781708
C         1.17028407893575   -1.68418168201606    0.37861276291968
C         2.33983483892959   -1.00310753200528   -0.45210551965838
C         3.58188391030968   -1.82087571801057   -0.76738087232044
N         4.42222101007210   -1.11140284439639   -1.58609188530966
N         3.87347644422138   -3.06831620855918   -0.54422805334741
C         0.69398207027507    0.44448292176539    2.37221431880278
N        -0.49485839015178    0.95341428938772    2.50743487011624
O         1.65640637131386    1.18904680530595    2.89516954736148
C         2.17113021376433    2.41163589298156    2.28343367872251
O         3.34138885126030    2.26955563220224    1.44096510202758
C         3.43901198842053    1.45894917269906    0.23213010376306
H         1.25886876462847    1.13567823205530   -1.09183699436957
H         1.03465305236075    2.02484118678883    0.33233596356741
H         0.14389454868346    0.53610313923349    0.07771008228816
H         3.75166892104963    0.31963457394487    2.46990313080156
H         4.08946995530559   -1.11039984577153    1.40022555655313
H         2.20007518357305   -1.12619181106018    3.69538235577938
H         2.73801641331035   -2.31896111639791    2.56194605225186
H        -0.12227306787591   -2.89361617746131    2.45595111637334
H        -1.20248959932771   -1.48964925162326    2.15470911710957
H        -0.25750891041161   -1.47898956687610    3.58891292217948
H         0.19393159467687   -1.52389724617957   -0.09156185046725
H         1.33127883994003   -2.75813345292588    0.57562416349395
H         1.95871268789538   -0.85453862910345   -1.47713773570698
H         4.11880802377291   -0.19053616309591   -1.83842249461145
H         5.07041297996958   -1.64601523514788   -2.15356104781875
H         3.24725317737676   -3.51970075349988    0.11927069475337
H        -1.34624363101529    0.53025513536273    2.13884537633902
H         2.56425848804138    3.01176431653229    3.11067769803054
H         1.32359344789999    2.92424495360437    1.81831204190723
H         4.52417219836550    1.34270423125698    0.19203234950446
H         3.16850307452436    2.00193894841911   -0.68009897139230
