38
 energy: -53.136125606384 gnorm: 0.146146081544 xtb: 6.4.1 (79825abcba525fcdf90b791dcacef51065a7a4e7)
C         1.15653566489931    1.05674398465827   -0.04885177831091
C         2.56837048449090    0.32449123023299    0.37946729944626
C         3.33191054787088   -0.33638075912941    1.76839502678488
C         2.41342572838497   -1.33383885462904    2.55546887110065
C         0.99906384240199   -1.10080512941313    2.08524339499546
C        -0.07908943824957   -2.03428634832409    2.61917920393957
C         1.13227139346147   -1.62758446340684    0.47476246748722
C         2.29037034408226   -0.96679343757645   -0.38777207752153
C         3.49591340309799   -1.83862460161343   -0.69987070835383
N         4.27196560479771   -1.32254053247352   -1.70545815129395
N         3.83130967272787   -2.97625480517914   -0.16673095079066
C         0.60402756872973    0.47714306507749    2.30695177666001
N        -0.60281526383508    0.95926814673636    2.26544142899872
O         1.64067285386779    1.17408558663827    2.74712869132940
C         2.12979952943188    2.47282767847891    2.29115772133816
O         3.24568915957889    2.44792589171771    1.36724452400002
C         3.46809634573309    1.53198830927380    0.25392133149574
H         1.38575068882139    1.25943124710571   -1.09984031684033
H         0.92046371897075    2.04871908628947    0.36708050572861
H         0.35117174325702    0.33137698250975   -0.00691460590516
H         3.81502158550008    0.32491452671664    2.49229936474206
H         4.12802332612760   -0.88348651090016    1.23815077082384
H         2.41311998105147   -1.26073570424444    3.64706540085775
H         2.73941667075525   -2.34403480939536    2.27674003566830
H         0.36911028109723   -3.02019633465824    2.50700490222008
H        -1.05256477600896   -1.85080833204279    2.13214004024400
H        -0.16435068389223   -1.87325830841991    3.69946443594572
H         0.16056049092270   -1.50708695222324   -0.01643779553383
H         1.44398103934932   -2.68589825583794    0.50499853990507
H         1.95630556123406   -0.71119959291180   -1.40811042536928
H         4.09350150361263   -0.44869998631919   -2.16183395479049
H         4.99518560877534   -1.85123669604264   -2.18023985855820
H         3.27800136864562   -3.27360500382071    0.63424779456491
H        -1.30733332857041    0.27006358572034    2.00384999238951
H         2.63754757623721    2.87224804230214    3.17529115073531
H         1.34999936824700    3.13327090174153    1.89981235082222
H         4.53688001411903    1.32458550426059    0.33982205594631
H         3.29501940397359    2.16514513487428   -0.62319419498438
