38
 energy: -53.123575605035 gnorm: 0.146247687311 xtb: 6.4.1 (79825abcba525fcdf90b791dcacef51065a7a4e7)
C         1.04208300520292    1.10295777753315    0.09802684321839
C         2.48479051080931    0.36250330129396    0.38655958387299
C         3.23770046040702   -0.48299494803004    1.67773145594715
C         2.29439583099797   -1.37007838215428    2.56163282975979
C         0.94470371779477   -1.07021722540397    1.95810090804316
C        -0.16323684320002   -1.92358606773783    2.56069404668362
C         1.15207583862279   -1.61035263147880    0.35993318077667
C         2.26531645339984   -0.86634303544800   -0.49385186584836
C         3.43857273216811   -1.76714958043572   -0.84434657380930
N         4.47216893068106   -1.09518408554815   -1.44430257061995
N         3.63755236983729   -3.03728306809272   -0.64915640743739
C         0.65491072819193    0.47315219581545    2.43680713011737
N        -0.50170230324444    1.06011592614580    2.52822492941540
O         1.78340192408497    1.01059855498685    2.87473074095814
C         2.38949861862770    2.28865704104988    2.50990370660071
O         3.36783421659242    2.24187156042490    1.44214158525864
C         3.41465538972351    1.53333975062892    0.16790235513747
H         1.15081118803888    1.39998586286627   -0.94990018786426
H         1.00146565900199    2.04076523644226    0.67388415625840
H         0.20771766592596    0.41238453085098    0.03911897287219
H         3.84254700735508    0.17694040752068    2.30494052649938
H         3.94963133726423   -1.12376356295329    1.13289272109793
H         2.36166738084308   -1.29927008846449    3.65130611898065
H         2.61055208895488   -2.41486926153291    2.44799758302517
H         0.17942534021765   -2.95045950626441    2.44408299037078
H        -1.10210134134034   -1.80507573429145    1.99235055392750
H        -0.21662842292362   -1.59763771154038    3.60526223864615
H         0.25050932642647   -1.56934752361690   -0.26096603703254
H         1.50662019668911   -2.64420280559138    0.51341715975337
H         1.88996659478794   -0.60244237216501   -1.49758827484480
H         4.47106260674108   -0.10413130004409   -1.59106350307321
H         5.03635732972142   -1.64875879018344   -2.07930728493033
H         2.83969210782091   -3.50666537251320   -0.22579671118591
H        -1.21376141431924    0.50382569143276    2.05568740568782
H         2.98237392312114    2.78687291747212    3.28405901184181
H         1.61320032107705    2.98260617837043    2.17342146692137
H         4.47387948759109    1.27072498349340    0.12581672825494
H         3.14036930591777    2.11943024932894   -0.71608855256568
