38
 energy: -53.125905727322 gnorm: 0.151393711849 xtb: 6.4.1 (79825abcba525fcdf90b791dcacef51065a7a4e7)
C         1.11371523822050    0.96206644757811   -0.00687315041875
C         2.59721644325479    0.32120491301366    0.31163837009034
C         3.30866513800212   -0.43077528662899    1.68175953398411
C         2.31545824835069   -1.28496267290438    2.54311094699707
C         0.92853766165909   -1.02456343224318    2.00974445464903
C        -0.08712898380593   -1.92199722319374    2.70395118891570
C         1.23360628768907   -1.63069655946377    0.45140390533554
C         2.33326376137549   -0.95988605441250   -0.47734283455031
C         3.53614927405268   -1.84474061065830   -0.76182143435033
N         4.50532222980044   -1.32062835743290   -1.57779694542937
N         3.77507051129498   -3.08827822488765   -0.46608168760970
C         0.54995900204600    0.54273875734534    2.31856610243081
N        -0.62332133472334    1.10309014363421    2.31102290302169
O         1.67082506686671    1.13548836706431    2.70122158087963
C         2.13743183244507    2.47172340693749    2.33978069653632
O         3.34966853151652    2.32407433334457    1.55995551581792
C         3.35243961286513    1.62955038940943    0.27717574212571
H         1.21517609767348    1.20572799547805   -1.06919763394141
H         0.91976699662965    1.92219264883065    0.49640212144527
H         0.29469783652930    0.25638146605488    0.08113973196331
H         3.75506543032901    0.34663217046040    2.30714714291338
H         4.14568960126773   -1.04724456069564    1.31619844032798
H         2.50952970509955   -1.04647103249818    3.59305626104851
H         2.50174235560226   -2.36135432207266    2.43758852887145
H         0.24395756789625   -2.95227500725302    2.82392592855589
H        -1.04471734513827   -2.00369965929045    2.16092742614006
H        -0.18733926084585   -1.47198266879295    3.69776228590513
H         0.31089865341096   -1.64376121976461   -0.13890056422450
H         1.54256916327692   -2.67702765570598    0.61825227097065
H         1.86826198203797   -0.86999237959297   -1.47419302369290
H         4.41533972514485   -0.35672634504818   -1.83571490949891
H         5.19632160430587   -1.89277400510718   -2.05018841875655
H         3.01558242612474   -3.60971902548649   -0.03317117364025
H        -1.32207009563233    0.39352389099316    2.09183208229607
H         2.52928734380564    2.79067431352625    3.31125185348343
H         1.31988889747022    3.10975164671567    1.99054115041181
H         4.42854774779251    1.52178821329512    0.12528108333488
H         3.17636535907793    2.32269704796322   -0.55271605455186
