38
 energy: -53.083731699747 gnorm: 0.155775145673 xtb: 6.4.1 (79825abcba525fcdf90b791dcacef51065a7a4e7)
C         1.35069593908019    1.26077732919068   -0.49795847986204
C         2.67022807498728    0.54882024946371    0.18386331179835
C         3.35195828540303   -0.08144665037521    1.62846464366394
C         2.55799641051587   -1.15912094682823    2.44471515583470
C         1.13088901208487   -1.15230075489507    1.95568119000794
C         0.41810080029449   -2.38470703228484    2.49604852779391
C         0.99291311889416   -1.23189695190306    0.26348833659085
C         2.30109566979202   -0.76348250342763   -0.50530953981245
C         3.28535690254711   -1.92085608475244   -0.45485660059303
N         4.62704775542487   -1.67906647778342   -0.60049098458659
N         2.94731560496801   -3.17316399868276   -0.36329155637457
C         0.51157698406379    0.29368695490014    2.42546936932424
N        -0.35999510333362    0.43369910215081    3.38014001431831
O         0.92321351769989    1.44420282329535    1.91460085578313
C         2.05367967585493    2.31497886991909    2.22714011541075
O         2.93915780948856    2.66231051147381    1.13410097154286
C         3.61041539182617    1.73068620798884    0.23444294039113
H         0.39852878793254    0.75865422898945   -0.69657532968337
H         1.79856346217047    1.30827438691026   -1.50289776250649
H         0.99474074205218    2.26238393704977   -0.28207157929417
H         3.67599113659479    0.62273842132548    2.39909511496584
H         4.24974573035003   -0.57078803505921    1.21760951031628
H         2.63165346821234   -0.94130579943366    3.51432178833139
H         2.95682182392989   -2.17957709726099    2.38097149217747
H         0.83076633628749   -3.27695865930942    2.02799004206827
H        -0.63417696700904   -2.37702527180694    2.16261478924520
H         0.51722562354792   -2.46487801958263    3.58414896749512
H         0.13973380600068   -0.59767658608126   -0.00083917749372
H         0.72446131500691   -2.28159934747740    0.05333667956517
H         2.19844413075783   -0.66664615764430   -1.59988856063661
H         4.93062099140023   -0.92216898178682   -1.18244896860048
H         5.07961020758745   -2.57887102177736   -0.71678159645289
H         1.95317793141135   -3.35299658323441   -0.23885398854129
H        -0.62128692531128   -0.48040904618454    3.74880191130780
H         2.59013864652714    2.00186196448513    3.12891957358301
H         1.56625637065086    3.28171016478119    2.38611771706982
H         4.64348674240205    1.47755553961782    0.48219652776365
H         3.64334245230867    2.34461554982607   -0.67229925979001
