38
 energy: -53.132245303521 gnorm: 0.141492244145 xtb: 6.4.1 (79825abcba525fcdf90b791dcacef51065a7a4e7)
C         1.09347098413855    1.17682175387545   -0.15237938571597
C         2.46997039519920    0.38135292569566    0.27821045321315
C         3.23671197436383   -0.34718258638975    1.63106256108596
C         2.37893968554587   -1.35678743920419    2.46948191323813
C         0.98621889342850   -1.11527832044135    1.94237812183952
C        -0.00849720369148   -1.98794434381768    2.69595824998549
C         1.08305328005588   -1.56994359031360    0.30751051720811
C         2.30424040054484   -0.93274570859803   -0.48273291019992
C         3.52141002294050   -1.83172053727377   -0.62823753311968
N         4.47790482914149   -1.29110941182816   -1.44839801217417
N         3.72987020707283   -3.05701541748815   -0.24597065933898
C         0.60187433011882    0.43085210163571    2.33846993166614
N        -0.62654881932135    0.83585723390131    2.47107735510482
O         1.62233281021831    1.11485999045923    2.83335953591224
C         2.25464707764328    2.32372178309154    2.31113614622829
O         3.37083081101093    2.29871320348411    1.38758116986489
C         3.39973141768668    1.56303919274482    0.12827832708824
H         1.18380649295684    1.17474246887653   -1.24326605861415
H         0.93406511340859    2.21142084522583    0.18958365373079
H         0.14478377770325    0.70181379080947    0.07320225601202
H         3.59175683617357    0.39479726200385    2.35089190436569
H         4.04593397651327   -0.84447766708660    1.07237070442448
H         2.44180779599278   -1.07620286762408    3.52506092627322
H         2.78371035329695   -2.36843379384327    2.33837860331792
H         0.11475783180966   -3.04852727295035    2.48275272478865
H        -1.07629107249254   -1.76058144923987    2.53271633150548
H         0.09328183481196   -1.91664873180568    3.78443133043512
H         0.13101160100530   -1.22800130940261   -0.11286021256645
H         1.11738966586811   -2.66868558839571    0.20906145462792
H         2.12940759596064   -0.63308180879853   -1.53042221215721
H         4.68538791005198   -0.31106732732672   -1.43447313570667
H         5.37225289127504   -1.73344527678903   -1.26821749199659
H         3.01276181619946   -3.32483133573419    0.42497223526402
H        -1.37180569282764    0.25163132956603    2.09285653626415
H         2.80333322637717    2.74272103713292    3.16108894367994
H         1.50664408018349    3.03745446709457    1.95266451587119
H         4.45920115779314    1.31646627289357    0.03122647908785
H         3.09888588529080    2.21284146010609   -0.70083193166273
