38
 energy: -53.122970741051 gnorm: 0.154569275057 xtb: 6.4.1 (79825abcba525fcdf90b791dcacef51065a7a4e7)
C         1.05046351809254    1.08433909312869   -0.01134944795695
C         2.49038680581086    0.36976762568160    0.34772914205437
C         3.28805900704966   -0.41902872572132    1.64787714628154
C         2.39337543934492   -1.36703905348956    2.51899137484953
C         0.99310180294424   -1.09934363150826    2.02562620572264
C        -0.07905123357850   -2.00423974167346    2.61769040958551
C         1.14966971373998   -1.60535060731137    0.41059277769930
C         2.19218673564610   -0.85133406189482   -0.52022468655175
C         3.34689931691324   -1.78401146647774   -0.84822005311596
N         4.54786084369699   -1.22062765151872   -1.19476875735721
N         3.39382684044657   -3.07298499942956   -1.01337514318616
C         0.76403952786497    0.49117150403542    2.36166320956814
N        -0.38690918013548    1.08736319079548    2.46418100062717
O         1.79061278863675    1.10224066602453    2.93337982439764
C         2.25798184708015    2.38801640949097    2.42129352162008
O         3.38673504295538    2.32524530443647    1.51497051609329
C         3.45183866104171    1.53412350967091    0.29113107528780
H         1.02101013903306    1.31033719801879   -1.08198286249686
H         1.02231517062331    2.11226325933193    0.38276197869032
H         0.06797259962680    0.65959187533091    0.16423086497503
H         3.75974362073316    0.25564003126112    2.36696053775695
H         4.10101766910635   -0.94493274087080    1.12175699805680
H         2.53138992970720   -1.30313403017021    3.60240971396979
H         2.62550698870202   -2.40308764523942    2.24118930288489
H         0.12077579863064   -3.07399251208610    2.65208105567634
H        -1.08310140399671   -1.95606574851648    2.16152368647560
H        -0.27231640384277   -1.76402217697262    3.66895620988796
H         0.20730165265419   -1.52157823851140   -0.14162463144632
H         1.57525416167203   -2.62131619649175    0.47985326182314
H         1.75883723393688   -0.63590740129042   -1.51210038524430
H         4.68846103466661   -0.22909006689740   -1.22323663822062
H         5.24680736949178   -1.78454563819154   -1.66535854045904
H         2.51981315108072   -3.56913221096128   -0.85190629298128
H        -1.11521522532733    0.41341822553435    2.22934657515002
H         2.79306778875014    2.92799006187156    3.20942302856129
H         1.34464301007740    2.80449201827973    1.98565032852722
H         4.46884959259897    1.14130643502644    0.35498177500804
H         3.24437267199054    2.17578005689782   -0.57223998367979
