38
 energy: -53.125128054346 gnorm: 0.156191730728 xtb: 6.4.1 (79825abcba525fcdf90b791dcacef51065a7a4e7)
C         1.13841866788936    1.06027963877819   -0.07318512410796
C         2.55551019135478    0.33498585950104    0.34957897141905
C         3.28048501201838   -0.38323738951904    1.73067721862544
C         2.34406871026883   -1.35046513699949    2.53418034930153
C         0.96850468842509   -1.08356535921480    1.97523094734749
C        -0.05669062710389   -1.95185003803421    2.69213082610585
C         1.09771639718039   -1.56378269216105    0.34993552695749
C         2.30451527068770   -0.93184089925258   -0.46620777150691
C         3.52291844369015   -1.80919451847691   -0.70405979463219
N         4.42986298591020   -1.26481155925186   -1.57635831989750
N         3.89238980827494   -3.00952254715179   -0.36696233594802
C         0.62648518531386    0.48158670216244    2.33363087151615
N        -0.57866560902652    0.95970291008536    2.43188471267590
O         1.65959437538976    1.13250906232253    2.84656708348743
C         2.21315624764358    2.39031377037597    2.35120656446848
O         3.24385452312400    2.37856778097566    1.33289007719914
C         3.42601653960524    1.55291501214559    0.14418924620936
H         1.29100274133827    1.11016758097160   -1.15597220336608
H         0.86774556887861    1.94116579235934    0.52974099313293
H         0.28934294880145    0.39336490084505    0.03084479615137
H         3.71988478744389    0.43307570517190    2.30973335557447
H         4.01211700630923   -0.94967641175445    1.13222863831294
H         2.40071965855224   -1.17268846131972    3.61219393229183
H         2.65542871521816   -2.38838137047113    2.36028217662875
H         0.02862649906080   -3.02854654916367    2.55454388051055
H        -1.12089071838212   -1.80216422909324    2.43994460212056
H        -0.00585962844921   -1.81225734145230    3.77755506668404
H         0.12491795142116   -1.29651103676099   -0.07697018801076
H         1.12502197077868   -2.66581500701503    0.40364203448222
H         1.95076783167628   -0.68598599554696   -1.48229633358212
H         4.33282442200079   -0.33663507586929   -1.94077230437906
H         5.26993192104098   -1.77991512471711   -1.81497305065906
H         3.42040635851313   -3.59529809420951    0.31877288970612
H        -1.37485084933870    0.38736808346381    2.15206222864862
H         2.57987974939002    2.81868823311251    3.28984697620159
H         1.33560989051513    3.00310191423685    2.12354929019844
H         4.48887682991971    1.30487905802886    0.18291357487050
H         3.30262247727402    2.13399799119762   -0.77629504281537
