38
 energy: -53.124084061896 gnorm: 0.157797833059 xtb: 6.4.1 (79825abcba525fcdf90b791dcacef51065a7a4e7)
C         1.03568811698640    1.03667512617466   -0.07337711067864
C         2.48272720948999    0.39086739367268    0.37599926750561
C         3.22354571370703   -0.35248809593348    1.73521816824673
C         2.39826727460235   -1.30424287166015    2.66854587659551
C         1.02562637788279   -1.17710718563927    2.05574104461006
C        -0.10959544032306   -2.03813355930715    2.59313674249309
C         1.14346890420542   -1.65019979127938    0.42749472819412
C         2.24863537362740   -0.89008018581135   -0.42258120469649
C         3.44795652423927   -1.78224389120787   -0.69917104348655
N         4.26687969383240   -1.25727540220013   -1.66538988421561
N         3.87908437042061   -2.90877598362200   -0.21338777500047
C         0.70823678280007    0.40130856295854    2.37667149845239
N        -0.45282290301710    0.94176891811564    2.15199316746148
O         1.73785171847402    1.11685129174284    2.80329747752376
C         2.24754839138689    2.39901367809391    2.32355341849269
O         3.27343012355564    2.48591728129268    1.30401440972727
C         3.48132759695745    1.51606373369315    0.23440799609740
H         1.37136676872536    1.46496773189750   -1.02315805913766
H         0.67740977141442    1.87829068212865    0.53986355783034
H         0.23668224260558    0.32903947820755   -0.26668634192999
H         3.66970623809192    0.44107363991838    2.34015270299231
H         4.07983085018490   -0.91425713218437    1.32843745851429
H         2.48790747957660   -0.90788399221048    3.68431722188072
H         2.83800625639181   -2.30623578930789    2.58431083037516
H         0.30296422159402   -2.98022662651800    2.95054370244764
H        -0.87549700235074   -2.32446515088811    1.85156100397768
H        -0.63708107399739   -1.52525651457709    3.40488284303193
H         0.18799343977977   -1.68797163757167   -0.10697636887536
H         1.40778222919070   -2.70445766764290    0.61928631265457
H         1.72738093976119   -0.73840835453823   -1.38347001881401
H         4.03622163623989   -0.40643732923576   -2.14141199660555
H         5.04211189346320   -1.86203592223305   -1.91290602449168
H         3.18258875189080   -3.21845202739589    0.46124455649794
H        -1.09546922530661    0.17697094121953    1.94737528466912
H         2.81358179395995    2.78687228172978    3.17690476102902
H         1.35351219447807    2.98343892809267    2.08570651402319
H         4.52288518821363    1.19954968465199    0.32198671224343
H         3.37282244102734    2.23535818057228   -0.58474826002590
