38
 energy: -53.124146019370 gnorm: 0.153549505449 xtb: 6.4.1 (79825abcba525fcdf90b791dcacef51065a7a4e7)
C         1.08674645467676    1.07947596307321   -0.00779581638836
C         2.50221086798604    0.33316701372629    0.38260441477705
C         3.31774870070768   -0.44255735536492    1.67952970414482
C         2.41689175094682   -1.31294908879004    2.62234318500164
C         1.02002312176189   -1.08883135632614    2.09854400324457
C         0.04089831480097   -2.01128095413404    2.81218992660390
C         1.16057768365150   -1.69392820842384    0.51645937612380
C         2.17690177073794   -0.92047141178425   -0.42728515924796
C         3.29707350105201   -1.79193812637104   -0.97188617738300
N         4.46463727061397   -1.13591650353807   -1.26554647023628
N         3.26561363818521   -3.05856446079855   -1.26445950426194
C         0.73613940345784    0.50612199511597    2.36436848668166
N        -0.45992053787799    1.00349331634956    2.25167533038859
O         1.75084297100354    1.15196531741295    2.91878813344655
C         2.25892799667527    2.38447755737831    2.32158744413122
O         3.44004725513338    2.31238969896549    1.48540205080937
C         3.42302423447311    1.52473096692642    0.25772168445398
H         1.26576987060400    1.20356748106712   -1.08052619983975
H         0.88052448054335    2.12232541892312    0.27974851341491
H         0.17759105906290    0.49669025696102    0.09381296212863
H         3.80007992966640    0.28816387762297    2.33386012514622
H         4.05159431207155   -1.10661579056284    1.19499255804164
H         2.55535032437350   -0.92771570742576    3.63691286072251
H         2.56930372134992   -2.39967910219139    2.63797013701597
H         0.14938234579145   -3.06383907607288    2.55560237159203
H        -0.99792086366451   -1.67043438023484    2.65986166761047
H         0.16948140820073   -1.84786681817567    3.88781899984023
H         0.19284921610926   -1.62294988460674    0.00804701540762
H         1.49658111751861   -2.71948708878846    0.74762139942517
H         1.73069943429889   -0.54691445887589   -1.36503593755626
H         4.74501375246794   -0.17471698047583   -1.23075984785758
H         5.19886877303472   -1.77155691934118   -1.55683644148292
H         2.34934797602089   -3.48116713467201   -1.13030142873603
H        -1.10295973276217    0.25737606381476    1.98787927065206
H         2.67169194315074    2.80695710431496    3.24363602813651
H         1.39718997205956    2.97486371889961    1.99558666508020
H         4.48042813123060    1.27265049166361    0.15262256970061
H         3.37250802375344    2.21707154748067   -0.58979673025781
