38
 energy: -53.128439777188 gnorm: 0.154649108302 xtb: 6.4.1 (79825abcba525fcdf90b791dcacef51065a7a4e7)
C         1.18315143496655    1.26693770229705    0.02114400759314
C         2.55117707316160    0.42681742404420    0.38942743248287
C         3.28819902913125   -0.41616772073143    1.69136450614194
C         2.41659849761856   -1.49128228720227    2.42788568484124
C         1.01654438795270   -1.19905809285704    1.94800050083029
C        -0.13204742707385   -1.98565614712253    2.56516294655775
C         1.05847838180009   -1.44332556844931    0.26649388986716
C         2.29369003987189   -0.79419511310383   -0.49158634213318
C         3.39595807361062   -1.81001334090824   -0.74446525015375
N         4.43290022434037   -1.25522269404940   -1.44928027885531
N         3.45583652063981   -3.08199045782678   -0.48098861019893
C         0.74853868917850    0.34126850647105    2.44869574001100
N        -0.45179955423390    0.82920505599667    2.55706257757434
O         1.81861628480313    0.99409635595250    2.87632617591433
C         2.26048244886703    2.32069680322982    2.45351297167969
O         3.25960302572375    2.40623459177294    1.40762257505919
C         3.45757702179543    1.62009730776940    0.19490264928921
H         1.40207169578078    1.49739679930470   -1.02631056825643
H         1.21525798378486    2.27297186507170    0.46791987361933
H         0.31796828831253    0.64343626794843    0.21921255425509
H         3.85052144089147    0.34560182407647    2.23748344591990
H         4.04718001044991   -0.95046373712909    1.09743279761040
H         2.40524348193832   -1.27611915473504    3.50050073619873
H         2.75582026622169   -2.50981301704422    2.19989562868617
H         0.07263587293689   -3.05247439914328    2.49108107544125
H        -1.09931915078018   -1.75096699343372    2.08784546392735
H        -0.18221274363437   -1.81885487844713    3.64677122528330
H         0.09482988167744   -1.17437178337206   -0.17967296134860
H         1.05615490579926   -2.53326774240838    0.09292585848959
H         1.91111085921257   -0.48047723512527   -1.47811161233570
H         4.35956152576850   -0.41790869196418   -1.99448878214718
H         5.12408359256548   -1.95660233147565   -1.69076867336662
H         2.66061345099432   -3.45063573431697    0.03655858831310
H        -1.27849780660912    0.30377585575908    2.27373792232594
H         2.76207276370922    2.55375931529048    3.39856622423944
H         1.44678105492597    3.04213732961494    2.33170020281956
H         4.52871487520296    1.41061060841671    0.23327475017130
H         3.26622365182421    2.16414564993914   -0.73653179838483
