38
 energy: -53.124027541957 gnorm: 0.152951143619 xtb: 6.4.1 (79825abcba525fcdf90b791dcacef51065a7a4e7)
C         1.24667356403341    1.28105750932315    0.05819618572860
C         2.58828507525759    0.36712417132114    0.33700312824580
C         3.28490413707508   -0.45037292396341    1.67688589917793
C         2.38389862730379   -1.44052797933320    2.49285422199401
C         1.00053389619107   -1.18641626458295    1.94735853315673
C        -0.12069408681584   -2.04629041844238    2.51512027779711
C         1.05488917613461   -1.49773389003859    0.27732369007999
C         2.28965705177573   -0.87374933938811   -0.50228863755226
C         3.42327182534652   -1.83644763246669   -0.81686573866024
N         4.23307345776850   -1.48712680066981   -1.86662865156806
N         3.70608797236797   -2.93461054816284   -0.18048190294414
C         0.71517967165475    0.35604968139338    2.43161114531726
N        -0.43081678897355    0.94474963494755    2.60700167469149
O         1.81183258534185    0.98081766667607    2.83302791962539
C         2.20635390850201    2.33074126174973    2.43812959625109
O         3.30372667903850    2.38921905258558    1.49377864430306
C         3.39897575825218    1.63908226197869    0.24633423601137
H         1.16351220981599    1.26174651492080   -1.03309196828121
H         1.34885371101741    2.33110353960095    0.37396000628604
H         0.28793772847019    0.85941454025296    0.34027749278172
H         3.77541901236331    0.27684380830260    2.32903328641021
H         4.10676533872896   -0.90187047567282    1.09811706793601
H         2.41557175103026   -1.26516212237891    3.57228499036174
H         2.72835334367274   -2.44364633611137    2.21078996787169
H         0.01662636476810   -3.12637333454605    2.50815292270636
H        -1.03067703042453   -1.87389552688013    1.91450674540102
H        -0.33501317990711   -1.68217354912588    3.52591299922392
H         0.09824267635302   -1.09873923652624   -0.07714799863360
H         1.02504084887291   -2.58858861686283    0.11224722475386
H         2.03215027619281   -0.46092747257125   -1.49288755003264
H         4.27534518469410   -0.53388416130544   -2.17202542060302
H         5.02611504616996   -2.11465942307192   -1.93923949655514
H         3.20663738418652   -3.15479721989734    0.67870440354887
H        -1.22000317414109    0.36128724411294    2.33035170552715
H         2.63716982923289    2.87905947837030    3.28239341973067
H         1.30980809165630    2.94782573098161    2.32482865822897
H         4.48732105942035    1.54937285998527    0.23408190887577
H         3.16167483277775    2.23382139458399   -0.64256872487809
