38
 energy: -53.124531128568 gnorm: 0.147230623191 xtb: 6.4.1 (79825abcba525fcdf90b791dcacef51065a7a4e7)
C         1.22799588317903    1.43797564757246    0.00751943652180
C         2.51080795153713    0.43961068408836    0.27320630173218
C         3.23727751412390   -0.37028586443711    1.60180520492161
C         2.37770586248660   -1.44341709327857    2.35516316834067
C         0.93507256647467   -1.17848986783996    2.00237564379575
C         0.01179101476844   -2.18336648525331    2.67814431443856
C         0.95480824072771   -1.45013995643253    0.32466700231867
C         2.16920487622533   -0.83632230978882   -0.49403474979758
C         3.37673324835534   -1.74143922459219   -0.67697704854525
N         4.38118699496793   -1.17090504509155   -1.41546832144698
N         3.56292420187258   -2.98142411059814   -0.33244606873275
C         0.66824227801175    0.36147908817787    2.50479579987447
N        -0.53818407823552    0.83738924686606    2.59797477675675
O         1.72242879069833    1.07271921759946    2.87485839496738
C         2.25410814435548    2.29035856156102    2.26776948200785
O         3.39926338054062    2.32905040997672    1.38088291134994
C         3.55471137968471    1.52743504261472    0.17210506537529
H         1.11321565087039    1.38672859509359   -1.07986172930620
H         1.49463329709315    2.49959038670597    0.12844452909539
H         0.30503766115786    1.12114249404566    0.48111413129484
H         3.69525463310523    0.30558869776377    2.32857598904787
H         4.05163295705176   -0.92857488355273    1.11250179926144
H         2.53494691985201   -1.36889674473822    3.43527849894531
H         2.69133772857627   -2.44029920248043    2.02002611213064
H         0.51115007583622   -3.13779666200071    2.51943662807913
H        -1.07082856584218   -2.20756379367917    2.46396006797226
H        -0.01924295232855   -1.98439841056062    3.75502141433449
H         0.06533513650896   -1.00374479956302   -0.13314125757096
H         1.08807624584497   -2.54178351456858    0.23161218887731
H         1.84905120527098   -0.79573484804690   -1.54943616289305
H         4.12408204325287   -0.46987705696666   -2.08343720523293
H         5.03257078295134   -1.84916519763907   -1.79447600117321
H         2.86190356134581   -3.41704807214721    0.26331898921787
H        -1.24948965388221    0.15276313426046    2.34280780994160
H         2.69171667878541    2.60713518280600    3.22023364102927
H         1.43510269185849    2.93707814776130    1.93851488481271
H         4.58931394375624    1.17774674833014    0.16909959310907
H         3.63708171137005    2.08529028919034   -0.76714330355056
