38
 energy: -53.127481981614 gnorm: 0.159993377079 xtb: 6.4.1 (79825abcba525fcdf90b791dcacef51065a7a4e7)
C         1.10436873871240    0.99865343094723   -0.01713649169750
C         2.55371120435645    0.33097412950829    0.39095623043958
C         3.31964764569027   -0.41952056444937    1.73221107276957
C         2.38818937647275   -1.31185018516899    2.62336516370597
C         1.02284911759886   -1.11362370714457    2.01312870965901
C        -0.00868050550319   -2.02440663766104    2.66528684592255
C         1.15882036735419   -1.57283679416851    0.38232378748113
C         2.33652860887553   -0.91948514326159   -0.45906716705211
C         3.43569984919330   -1.89649728026988   -0.84390361228152
N         4.47975442559257   -1.19533477818670   -1.38991377427123
N         3.63034828406119   -3.16324762161231   -0.62393382226827
C         0.65169705899750    0.43348613236869    2.41788306525752
N        -0.54418978804210    0.93618304577429    2.32963451323428
O         1.66720912571511    1.20054822419035    2.78458326916727
C         2.10459722527449    2.47235248674694    2.21441572739578
O         3.28197784891965    2.47752845585783    1.36990791787027
C         3.45814489915363    1.53544010572701    0.27021257160795
H         1.31157508520245    1.37046445495123   -1.02561091069133
H         0.85095328258016    1.93494651447130    0.50428474447737
H         0.21471305504705    0.37932674962585    0.02125991935526
H         3.83605780734015    0.34964260575917    2.31225744762582
H         4.11515195037796   -0.97038964212553    1.20495838824757
H         2.24394726209601   -0.99996875730789    3.66204285614654
H         2.83838323357733   -2.30980852952084    2.69991814093320
H         0.31293593794240   -3.06442346948163    2.68559479843117
H        -1.03318887248241   -1.99679885622311    2.25523077794311
H        -0.07319598075626   -1.78963944347156    3.73343375073797
H         0.16616026696222   -1.39807940484363   -0.04675104790513
H         1.25971477311634   -2.65986845622870    0.54445858347449
H         1.92635323555521   -0.70331272500956   -1.46058775897792
H         4.49145943679631   -0.29898947476483   -1.83729917973096
H         5.29498789407824   -1.71243017186720   -1.69973829041433
H         2.85751505745119   -3.48273173335253   -0.04359522747951
H        -1.33993566534809    0.36376722533874    2.04873002051439
H         2.52337514496208    2.98667787383529    3.08569701316065
H         1.20627855087658    3.02168471693310    1.91661981597873
H         4.53584940727343    1.35900932215934    0.28110118513614
H         3.28056046925872    2.04325393727157   -0.68412684912171
