38
 energy: -53.126144541173 gnorm: 0.157580568718 xtb: 6.4.1 (79825abcba525fcdf90b791dcacef51065a7a4e7)
C         1.17353925911837    1.26885012096628   -0.09337059905464
C         2.51256886078998    0.38839912908830    0.28706954139298
C         3.30413667337838   -0.32016476904353    1.63622598057068
C         2.41212438678081   -1.36887903273181    2.38624915037715
C         1.00152855610002   -1.11372909498214    1.91619148522763
C         0.02037751055846   -2.05618845552318    2.60029829759367
C         1.08455130908530   -1.54332470378537    0.27380164287094
C         2.28969469582017   -0.88622447562367   -0.52472986759530
C         3.44411435401376   -1.87342990501872   -0.58447923800775
N         4.55930685511111   -1.31500415665488   -1.15396348960108
N         3.56992371262577   -3.12547568658807   -0.25663086806906
C         0.68511242461540    0.42366847729291    2.39725109279862
N        -0.53732112280546    0.75727909416960    2.68879447861470
O         1.63915059643574    1.21656960013816    2.86118755702546
C         2.03857544888420    2.44081397831322    2.17157102014756
O         3.25197039517577    2.33777638254812    1.38639502818978
C         3.45733323285318    1.56171155436453    0.16842760008801
H         1.03055557016131    1.05394611328906   -1.15712362228945
H         1.38578036433401    2.34810874102657   -0.03953020225297
H         0.25597140665100    1.04261375253094    0.43899525817792
H         3.64590011594488    0.52869285314115    2.23404177660268
H         4.16153175146208   -0.82324041161959    1.16076008740799
H         2.64225355018137   -1.35908095785648    3.45576853877837
H         2.65345517564468   -2.39291458409526    2.07389298106213
H         0.26102643099144   -3.07713031933963    2.30832163595701
H        -0.98583727760126   -1.84580619747258    2.19805872176000
H         0.07957702986411   -2.08359126546370    3.69389794617662
H         0.15325337717738   -1.35469716754196   -0.27128848908036
H         1.25559366187754   -2.63305875501162    0.23734033084199
H         2.08538779501892   -0.67728922099852   -1.58897730484581
H         4.41483440368607   -0.48073986384094   -1.68955328400614
H         5.26301540314648   -1.89105816162325   -1.60222742481193
H         2.84911352634715   -3.53258630151307    0.33567631704573
H        -1.35296665200210    0.17687880837678    2.49479295702286
H         2.34161403830767    3.05923281305191    3.02290079876794
H         1.15482372000261    2.99713641590385    1.84459552126423
H         4.52647283776078    1.36023405902613    0.26351035337545
H         3.44554316478649    2.18728089787756   -0.73084924469410
