38
 energy: -53.127541746809 gnorm: 0.148590314081 xtb: 6.4.1 (79825abcba525fcdf90b791dcacef51065a7a4e7)
C         1.11137655701404    1.08045415152455    0.00748476527479
C         2.55571614831567    0.34260706956602    0.29452786898431
C         3.39000351531930   -0.37237947453459    1.61423401237643
C         2.41237760465367   -1.29158921185205    2.42498878597027
C         0.98354354237548   -1.08804354892628    1.98585479584543
C         0.00272060219962   -2.05072760890897    2.64168624197744
C         1.02443525282918   -1.48787043709011    0.33438398513957
C         2.21705879809815   -0.89677159099415   -0.53167320078749
C         3.42047392821940   -1.79227284844117   -0.77804440053493
N         4.54129223124886   -1.21837567272907   -1.32045962712756
N         3.52540915372515   -3.04431815770046   -0.44292902691616
C         0.63885139759621    0.45658415573709    2.42225066447025
N        -0.54735940768647    0.98026893970193    2.51866388475552
O         1.71277832297876    1.05502311102480    2.91486595613114
C         2.33312130319536    2.26678588242820    2.38506313943464
O         3.39820055772752    2.30540857600767    1.40345230631789
C         3.38327814366675    1.59601548199569    0.12891948435075
H         1.12236263614924    1.24971341441970   -1.07391671878852
H         0.95789997523882    2.07273530562291    0.45977592139719
H         0.16604058509575    0.62778416495488    0.28669229208410
H         3.87444681586429    0.39653607074937    2.22154678546521
H         4.12558397779746   -1.04272844064452    1.14112421647498
H         2.46442110983458   -1.12680924442424    3.50529716369751
H         2.66637140670450   -2.35272714954757    2.30696693962073
H         0.15174860908750   -3.07364118604453    2.29974615680194
H        -1.06268331007706   -1.77180925616938    2.56655558256476
H         0.15223467201350   -2.13618364412060    3.72360975749489
H         0.15121000426173   -1.34732053041606   -0.31194627828709
H         1.07598040096459   -2.58882468925050    0.39224621442957
H         1.80238938934872   -0.70223506472413   -1.53577611633664
H         4.41974374195309   -0.38278306859414   -1.85965957579519
H         5.19765061235632   -1.89308084729746   -1.69722360118854
H         2.64375941229315   -3.32425102229731   -0.01811670681645
H        -1.23493664155823    0.33505744105521    2.13043922513958
H         2.94185267748413    2.68380606765916    3.19412241221251
H         1.53292313449983    2.98542437835575    2.18340415124448
H         4.46725784436508    1.57039671843929   -0.00156070224264
H         2.87731867279823    2.27267142297665   -0.56844455512133
