38
 energy: -53.125852499893 gnorm: 0.154470570102 xtb: 6.4.1 (79825abcba525fcdf90b791dcacef51065a7a4e7)
C         1.08287653322160    1.12323280403728    0.04343778083401
C         2.51400897559392    0.35611212872454    0.31968893709186
C         3.30092418380514   -0.44413745667607    1.61939295206047
C         2.42116764474765   -1.51873153940706    2.34692182676789
C         1.02472775758377   -1.12655928461898    1.93220163618326
C        -0.07822415772950   -1.89659808109686    2.64594280430861
C         1.03329496597527   -1.58784539855780    0.29634368318527
C         2.22539921580916   -0.90182024486961   -0.49741999103934
C         3.41725665640952   -1.81207270313831   -0.74590646265736
N         4.57774085437095   -1.20413186232470   -1.15024575225825
N         3.42570930976086   -3.10995957013466   -0.82558947954001
C         0.80479782779408    0.41911846481166    2.43978402914820
N        -0.33607386025216    1.02523253691791    2.58700787879607
O         1.85806503224062    1.05247812096171    2.93334435413447
C         2.18613695120295    2.38732643320497    2.43894140862968
O         3.18118646521500    2.38531903997927    1.38569983826181
C         3.40884143551966    1.56775851548115    0.19925002791243
H         1.11919887625953    1.06015323514099   -1.04876193523325
H         1.02811007861593    2.19434840055501    0.29335026275525
H         0.10090919674835    0.75414232665597    0.31919024839732
H         3.64469101976709    0.34605898177726    2.29182078250579
H         4.15228182849428   -0.87435885809281    1.06768746659279
H         2.67883025683619   -1.51069095144783    3.41015861792617
H         2.75637776820097   -2.44959906213216    1.87197387734851
H        -0.10160582152770   -2.98263058058389    2.57197486347286
H        -1.03591330667210   -1.61293936460676    2.17594834039122
H        -0.21473723229841   -1.66265089906069    3.70747404691191
H         0.08875091886622   -1.30153133322340   -0.17892489992638
H         1.33547267990817   -2.64924261958221    0.31150212052056
H         1.84519848560493   -0.70183059466988   -1.51401695291359
H         4.70377612449604   -0.21903004412958   -1.01827934781813
H         5.44996159432888   -1.72025855522506   -1.17903289276804
H         2.59219404142950   -3.67700434145804   -0.68471119661056
H        -1.16159597762525    0.57774041183140    2.18946198195946
H         2.77288845859385    2.93800106058592    3.18158314725853
H         1.21500959026747    2.83010342599242    2.19751868097839
H         4.47013570577526    1.33071039971722    0.30002729311691
H         3.21777210430231    2.08687312905770   -0.74636478346902
