38
 energy: -53.125064170150 gnorm: 0.147051189799 xtb: 6.4.1 (79825abcba525fcdf90b791dcacef51065a7a4e7)
C         1.22132351485804    1.33633452637207   -0.01446356701147
C         2.56171341683368    0.43976125990509    0.32085743081928
C         3.27344399517582   -0.40702227247310    1.63434998105717
C         2.40162801694131   -1.36818253326053    2.51419661602896
C         0.98420559162772   -1.16935390903425    2.03752366345904
C        -0.09048063423949   -2.11838344125757    2.55063338425579
C         1.01181756984215   -1.43842857436401    0.35951117107508
C         2.22394644916663   -0.82648033465472   -0.46393690400565
C         3.39726075750602   -1.75471529562554   -0.73327426344773
N         4.24269649075049   -1.22050882536638   -1.67118032315698
N         3.63488017533917   -2.97819158667307   -0.36236466854994
C         0.64207301137493    0.37546897604078    2.47524085722187
N        -0.56002440601120    0.86780200096573    2.41860752388644
O         1.67796195083285    1.03646210551694    2.96934635037753
C         2.27574999917213    2.24069714156911    2.39807331108179
O         3.43103601920663    2.18912509694684    1.52508997877818
C         3.58175156476034    1.55023247261841    0.22240191396832
H         1.36332546489856    1.34861517975506   -1.09976684024355
H         1.15779536504461    2.39387302017742    0.28607052040976
H         0.26797590792708    0.84440677876399    0.14573158375501
H         3.99684226137003    0.15044851367943    2.23490513389797
H         3.97844986762009   -1.03395077408316    1.06495854380355
H         2.41537955343402   -0.87820295499219    3.49228560399204
H         2.74819542816010   -2.40766045091200    2.57610298081083
H         0.14475087902236   -3.17214561840651    2.41014863916630
H        -1.08536987892387   -1.92910313263206    2.11143648683733
H        -0.04288285255940   -2.05506924018458    3.64330966488410
H         0.12223318176716   -1.07919782279300   -0.16927263372751
H         0.90128346444011   -2.52156887688331    0.17869499494472
H         1.92720717907130   -0.56700285029741   -1.49477883231896
H         4.48074781714598   -0.26044979202148   -1.83037777883772
H         4.95253138660593   -1.84985523191541   -2.02900990162957
H         2.87627466819267   -3.40473717650445    0.16556593133898
H        -1.32388412943225    0.22473435625551    2.21182010353243
H         2.70270879881376    2.76169175162586    3.26138520505044
H         1.45429205781729    2.86550843157239    2.03442176304851
H         4.60324505497137    1.16392391370518    0.22558652552883
H         3.53253958785866    2.27490055093470   -0.59772563254462
