38
 energy: -53.118906627167 gnorm: 0.153430296525 xtb: 6.4.1 (79825abcba525fcdf90b791dcacef51065a7a4e7)
C         1.07677271521753    1.05346295263727   -0.16167785293645
C         2.46914718223181    0.33339659889174    0.34401644034890
C         3.32790167492418   -0.36476386776785    1.65701994077597
C         2.45286583617940   -1.40041644384397    2.44426724212466
C         1.02869337759351   -1.11632412697513    2.03578142282084
C         0.00035528987490   -2.01620281459442    2.70781436401080
C         1.09204707423000   -1.61977812233709    0.41361930101272
C         2.23410788004192   -0.94455917810805   -0.45906641872296
C         3.46122192852477   -1.81260464776138   -0.68604101721507
N         4.58920663388810   -1.15445821793747   -1.10353320096219
N         3.63610406986572   -3.09606765590999   -0.57171633028903
C         0.71712602876572    0.43704135208871    2.46602586589331
N        -0.48838158418086    0.91594762668860    2.55567813252686
O         1.76699972855720    1.20716564543762    2.70849616272227
C         2.11052121983539    2.52511502587659    2.18039779764572
O         3.27006396878339    2.47867754266533    1.31278639057140
C         3.43145924120152    1.49447620915053    0.24827031921933
H         1.26910241173800    1.17683144220231   -1.23218617534765
H         0.79298633589971    2.06813820767408    0.15870263683561
H         0.21532336299510    0.40911211993158   -0.02295480239492
H         3.55576420902530    0.39911615701559    2.40489106541999
H         4.16151554562471   -0.89724887318407    1.17139984857481
H         2.51868214784648   -1.29977173960363    3.53167977747032
H         2.68092144742708   -2.45733496729986    2.25619914930008
H         0.41517405933517   -3.00385558747020    2.90262696679177
H        -0.88393642752610   -2.23133134535203    2.08309567477530
H        -0.40202763673214   -1.76242368590666    3.69467799159266
H         0.22739727666345   -1.19955515361071   -0.11155956307696
H         1.08959827950780   -2.71543104126218    0.28078898727498
H         1.89977161515376   -0.76948310215882   -1.49617079970148
H         4.50295254771770   -0.29639770436705   -1.61345281523390
H         5.38149309445679   -1.77974386599075   -1.19988940688521
H         2.80807103052527   -3.55118625443685   -0.19308388372164
H        -1.27720390938662    0.28707116994891    2.40717744986104
H         2.30868196276644    3.19616787484829    3.02269051293023
H         1.28372567505528    3.02819571168718    1.66976710876871
H         4.48651689647915    1.21286880082618    0.23264927016926
H         3.20519779978258    2.10138703486491   -0.63526794933555
