38
 energy: -53.124776401946 gnorm: 0.149544239720 xtb: 6.4.1 (79825abcba525fcdf90b791dcacef51065a7a4e7)
C         1.04256314753708    1.09584062309730    0.08305341460113
C         2.46499197042172    0.32696185915293    0.39682179066821
C         3.30598763840404   -0.45474895387453    1.67373994129523
C         2.40597277692993   -1.43883395359599    2.49810165847565
C         1.01185439771550   -1.12966128256795    2.01160142315584
C        -0.12131846959665   -1.89197201683078    2.68516711585676
C         1.03473234312379   -1.60140253520288    0.37886558472248
C         2.20230224739954   -0.91611861098934   -0.45117674832981
C         3.42264406594390   -1.75054299892405   -0.80519794446942
N         4.44009117908348   -1.04546267210990   -1.39466296568550
N         3.62657131546035   -3.02487300544898   -0.64573678292400
C         0.74987246757539    0.44068386409042    2.41223889912733
N        -0.46198367363963    0.90050784669696    2.51521438500692
O         1.83425202508424    1.11274366248936    2.76801222562083
C         2.26396437865823    2.41180282004784    2.25646744002202
O         3.44504388912479    2.34608278217899    1.41970137743083
C         3.42350800804904    1.48487233281427    0.24252342976495
H         1.21012413787800    1.62123475864725   -0.86250614266402
H         0.78744567357911    1.97539991019783    0.69463723599094
H         0.25813820142489    0.36033614441090   -0.05920595882169
H         3.81958925323189    0.17836868511452    2.40183380037225
H         4.04982863797400   -1.05194206928789    1.12206958247012
H         2.59558147051402   -1.13825236956461    3.53281244380251
H         2.82434014473398   -2.43359627400301    2.29842092767457
H         0.01450140856436   -2.96145231347199    2.53268951946164
H        -1.08826014410355   -1.70693347245314    2.18585748983643
H        -0.16935322141973   -1.57970031227220    3.73416413075042
H         0.05513953548259   -1.45496414603786   -0.08908008726929
H         1.23348704256068   -2.68595244080621    0.33035505888981
H         1.77465489935509   -0.50983003804689   -1.38394959489430
H         4.21278532177425   -0.18996907483470   -1.86390530192699
H         5.08457305463569   -1.61527622988221   -1.93126347775022
H         2.94435838442279   -3.56047697234537   -0.11296283666598
H        -1.08752878990350    0.11570158954324    2.33479495953429
H         2.56100790814044    2.76220669945507    3.25045883674321
H         1.42836686416035    2.98457586073805    1.84278569446058
H         4.44495821712656    1.09846808353363    0.24748647109189
H         3.36613175662916    2.01417362974545   -0.71493306883918
