38
 energy: -53.130453357198 gnorm: 0.143886217279 xtb: 6.4.1 (79825abcba525fcdf90b791dcacef51065a7a4e7)
C         1.07834579702672    1.14078209957061   -0.13111458105674
C         2.47183729579792    0.38259595767480    0.31190247800215
C         3.23457641107370   -0.33228654600794    1.67426715889428
C         2.41910892389447   -1.31597921331744    2.58277350791829
C         1.01378449689358   -1.16422962245964    2.05563822448810
C        -0.06986626575891   -2.01585278616203    2.70319375379166
C         1.10237323364840   -1.56747963803545    0.40687171239809
C         2.26972300982474   -0.92272489317202   -0.45532875182264
C         3.50319617916338   -1.76493488126897   -0.73826956018228
N         4.43793754117973   -1.28438634819191   -1.61868855086193
N         3.82145457084568   -2.93795707345428   -0.27603402563265
C         0.62585555745759    0.39878625490327    2.37441923398670
N        -0.54453049808734    0.95846431817420    2.28727392190162
O         1.65008775682442    1.05404379919993    2.89949449591349
C         2.21426645088275    2.26202216553268    2.30252201707091
O         3.34980973908538    2.29536454114216    1.40314717973816
C         3.43687601381757    1.53552398699544    0.16098899561107
H         1.22592320202180    1.49640825446594   -1.15578501832065
H         0.85119549027723    2.08742944252008    0.38367254165624
H         0.20930494512512    0.50297914719812   -0.01068845309720
H         3.70881102791298    0.46413622748217    2.25354043777766
H         4.15929765212294   -0.83524270584772    1.34837613413965
H         2.51151440181554   -0.97371386694477    3.61778211519217
H         2.79434179295820   -2.34525955367554    2.51767357118307
H        -0.02809398973466   -3.06220229507200    2.40504556486876
H        -1.03907228283382   -1.68607181271275    2.29038655918376
H        -0.09129693942403   -2.07573442609350    3.79688959918129
H         0.15477495235094   -1.39193359811738   -0.11395505162158
H         1.24798757349219   -2.65705632159157    0.50548369950381
H         1.76800549131519   -0.75277528141926   -1.42353044004547
H         4.50510137187585   -0.32324843925002   -1.89333114253467
H         5.24465490446686   -1.89326286640263   -1.53830837314562
H         3.20063936927523   -3.48614559512480    0.31575309654527
H        -1.34604479646467    0.45714830331983    1.90512762340809
H         2.61558261944052    2.82935343341833    3.14875909778764
H         1.42510135857339    2.96331949150777    2.01472822308947
H         4.50448831027687    1.33493118455405    0.04847275356361
H         3.15012497871854    2.15786964798511   -0.69378265567628
