38
 energy: -53.121969960811 gnorm: 0.150445116180 xtb: 6.4.1 (79825abcba525fcdf90b791dcacef51065a7a4e7)
C         1.11840307564159    1.10864448253355   -0.00403865495746
C         2.53668424289341    0.36121806821467    0.37379887956413
C         3.23015623554040   -0.38931203152117    1.75389548814483
C         2.27929739721514   -1.33515291446764    2.56585286401964
C         0.94195979422625   -1.07620851092619    1.91753793052532
C        -0.17113809940785   -1.89814328087696    2.55340386263907
C         1.26012725740715   -1.63350373241216    0.34366338881320
C         2.39876603392221   -0.89641653620000   -0.48217440151590
C         3.62286688999818   -1.75810391388530   -0.74656277424202
N         4.40058984944693   -1.44933097779625   -1.83266230736964
N         4.09248860641378   -2.82927728797384   -0.17825456900756
C         0.60582189385522    0.47891506139502    2.32217460719305
N        -0.56626017118182    0.91325770531563    2.68023533538740
O         1.66860365317236    1.10837415183816    2.80008075455033
C         2.09917369305110    2.40030424021014    2.27148678469479
O         3.30420759892457    2.29361862800534    1.47401775210320
C         3.43436854022629    1.56646925713585    0.21615961491635
H         1.16194815728659    1.12423334357538   -1.09768365078165
H         1.20919372015085    2.18300786303139    0.22011448348999
H         0.19614190680140    0.60625689632214    0.26719576539962
H         3.55970445169509    0.45884855908931    2.35950825979944
H         4.11102495412989   -0.92631398146071    1.36662498533256
H         2.30894647855145   -1.14448019505878    3.64274283503856
H         2.51270209608852   -2.40667861598665    2.60840462820823
H        -0.02713930892651   -2.97594937866375    2.60892795370148
H        -1.13095061849287   -1.84785554007565    2.01048891219903
H        -0.45913784681968   -1.59410324972257    3.56574347865215
H         0.33861399522828   -1.65690151593265   -0.24818565853994
H         1.67138131352570   -2.61983496333326    0.61957284457679
H         2.05408166626807   -0.75346300007766   -1.52081525633310
H         4.03100893433839   -0.75863496536819   -2.45722182204987
H         4.99921081310674   -2.19440675015281   -2.17104009272558
H         3.52770140197624   -3.14151033935915    0.60893036005730
H        -1.37310531058047    0.35622062744653    2.40007585579830
H         2.34880946648304    2.94544732265153    3.18774964877129
H         1.20387086290343    2.81016068467297    1.79412392705595
H         4.49920614162423    1.32768673184180    0.17376628994025
H         3.22588460357234    2.28594210384762   -0.58325774895855
