38
 energy: -53.123841774388 gnorm: 0.163904292788 xtb: 6.4.1 (79825abcba525fcdf90b791dcacef51065a7a4e7)
C         1.21670785571757    1.20897925123784   -0.14724448969378
C         2.58880797581066    0.45071947746284    0.35803986295884
C         3.28729099332995   -0.31694433841631    1.72613313988096
C         2.42413768284252   -1.28178828839814    2.61047740892739
C         1.03105623460852   -1.16994698574255    2.04245284609680
C         0.03692114195544   -2.14271591025172    2.66237637454625
C         1.14960868055040   -1.58514847735740    0.39854207656138
C         2.30828961202392   -0.84676725701414   -0.39773395605069
C         3.43141552676695   -1.83756334242107   -0.65800410043093
N         4.00959147788735   -1.60098517439283   -1.87847502310540
N         3.70068099312179   -3.01328346146553   -0.17209312227284
C         0.69561698923756    0.42028498205486    2.27433997363248
N        -0.50735655749725    0.87583161757569    2.08468428003879
O         1.64895970254643    1.14800231872675    2.83619691620135
C         2.08283742428751    2.45922562573614    2.36045639863999
O         3.34478708221275    2.36573043040731    1.65463270433894
C         3.49640424474486    1.65848491014121    0.38786076005486
H         1.59213911380790    1.53774008887901   -1.12149612325826
H         0.97145053236373    2.15779567155270    0.35509054038053
H         0.31776806603699    0.61548649974256   -0.27452632433218
H         3.79105780820931    0.52252064212092    2.21220184030751
H         4.11681148517729   -0.85964140217398    1.24482774107603
H         2.46747010938084   -0.95396768693266    3.65334993839982
H         2.73286654927506   -2.32363491258973    2.45653640286632
H         0.36188718868285   -3.17846867533595    2.57812771682717
H        -0.85641898790857   -2.16488269628924    2.01431957346378
H        -0.38197822249267   -1.98077403793935    3.66163301512860
H         0.22282921054088   -1.36738714174429   -0.14337974187956
H         1.45947394442485   -2.64403648816870    0.36947462860445
H         1.89025920542735   -0.62162113403533   -1.39401587112990
H         4.25687179715405   -0.63219154064603   -1.94185457838691
H         4.85941789525664   -2.11821364196306   -2.07406200244540
H         3.16589179009938   -3.31693791754750    0.63903489150816
H        -1.14721728514264    0.12370263700031    1.83040300501318
H         2.43986239214376    2.99243155095988    3.24773383216524
H         1.25034554097189    3.01732490193758    1.92124436260169
H         4.57068421969467    1.50702377679811    0.26265915416516
H         3.15988195583948    2.36032285459521   -0.38308093523371
