38
 energy: -53.123902757256 gnorm: 0.152018090086 xtb: 6.4.1 (79825abcba525fcdf90b791dcacef51065a7a4e7)
C         1.18678428406776    1.17467640804641    0.00768161856510
C         2.58716928127291    0.38115366213872    0.35721334369773
C         3.34091438604415   -0.38711960460993    1.69530526193238
C         2.43000590808269   -1.30473474809146    2.58201292254429
C         1.04401874278692   -1.08247119628022    2.02931517980524
C         0.09343998301425   -2.07338349710911    2.68763273562415
C         1.18656255776821   -1.54857406677088    0.40102806167622
C         2.29777061456321   -0.85297027053612   -0.49516156257862
C         3.33370638537357   -1.85439864317182   -0.97973097145083
N         4.57849201687140   -1.39687078642298   -1.32755691279885
N         3.15047014355242   -3.12809028867155   -1.16698809102053
C         0.60776029896971    0.46012410794977    2.38316136114910
N        -0.63132967878507    0.83982970993320    2.48859878164255
O         1.55160200810700    1.24137122443019    2.88608664309173
C         2.15760782840747    2.46342571373298    2.36337712966960
O         3.29026001350254    2.32372135606635    1.47061339418833
C         3.51887700225729    1.56553909716814    0.24554642097367
H         1.27905660080982    1.42805848837857   -1.05320569997698
H         1.20346121904975    2.17050032974686    0.47757611907449
H         0.31667990299537    0.57106628597040    0.24241604526200
H         3.86145296148062    0.30879749103752    2.35824132487477
H         4.06580584378260   -1.06401075029174    1.21506574907250
H         2.41075774805027   -0.96136544682991    3.62059570472064
H         2.79165077393996   -2.34044695208602    2.55088492854562
H         0.51253168296503   -3.07774807790832    2.72077638545906
H        -0.87874897293947   -2.00928016227424    2.16872525575070
H         0.03437552645262   -1.67633767134621    3.70698630826278
H         0.16504935737771   -1.57071700404321    0.00600919520263
H         1.33985369201659   -2.61924040086637    0.62075662807094
H         1.83456146597341   -0.41808007141993   -1.39756150182851
H         5.06534105030784   -0.57785013403027   -1.01786545735211
H         5.30460526658558   -2.08591763313250   -1.48867325207423
H         2.18043777419926   -3.41201648443615   -1.04633448578589
H        -1.24382343302580    0.11162942049151    2.12205484120748
H         2.55148603090046    2.94391019454904    3.26505958671039
H         1.45853587600437    3.24405201950764    2.04818556841521
H         4.58653887385136    1.34415790938927    0.30704351931261
H         3.27126589585687    2.19820003270706   -0.61387415602738
