38
 energy: -53.126388966986 gnorm: 0.153535496049 xtb: 6.4.1 (79825abcba525fcdf90b791dcacef51065a7a4e7)
C         1.08185218618691    1.17052986761749   -0.11689889529764
C         2.45170041666063    0.39646287035587    0.37019965958058
C         3.29044574586444   -0.35547083069156    1.66633524140908
C         2.50205691786105   -1.39291242942051    2.53821840764305
C         1.08441330714205   -1.15078109494083    2.08270191216052
C         0.05721866719888   -2.11245065558821    2.66489772224469
C         1.05835412756408   -1.46886253740607    0.41326048982227
C         2.22059861336726   -0.85350692689530   -0.47686818988946
C         3.39546752573783   -1.78360740196541   -0.73265206481067
N         4.33983309483778   -1.32035812313178   -1.61207215741842
N         3.54196628771469   -3.06300264286875   -0.55205001843038
C         0.70794359715939    0.40250294466621    2.45781260416913
N        -0.44356273936431    1.00299715075210    2.39395965504047
O         1.77373019542537    1.05807997025036    2.89190447121871
C         2.21544230584159    2.32740977971987    2.31956041891899
O         3.38296037980697    2.41524482030905    1.46596102636150
C         3.43477595983130    1.54179276434533    0.29878845644523
H         1.20065170797638    1.29810661102776   -1.19755120044619
H         0.91991307396913    2.21414125470496    0.19518319170346
H         0.16502774334140    0.60648054075598    0.01654905454630
H         3.81121662115866    0.37332607531832    2.29275203290856
H         4.02363835701298   -0.97335221328122    1.12326026656015
H         2.70852353584566   -1.22829695116406    3.59991536410121
H         2.83694740974631   -2.39577024567763    2.24397313181108
H        -0.28471778388935   -2.87632262473468    1.96843262414415
H        -0.82375693991866   -1.53312047245783    2.99167606437091
H         0.43371913724345   -2.58336209646468    3.57961379717105
H         0.03958940047078   -1.18755139286990    0.12515997093159
H         1.22137490016878   -2.55923819081167    0.46435236980521
H         1.80066651017348   -0.73326777461606   -1.49038554279147
H         4.48443335843893   -0.32898722004942   -1.61241581864786
H         5.05874937395792   -2.00778947378501   -1.80849520244771
H         2.81818816717007   -3.43383850365752    0.06012656959667
H        -1.30487702104867    0.57130536436123    2.05995574634757
H         2.39198545881300    2.97502513188627    3.18469826788443
H         1.32381798461199    2.78324732272718    1.87837683505272
H         4.48951006599573    1.27140158946732    0.21442037262258
H         3.19812823646189    2.21615704822429   -0.53151601792845
