38
 energy: -53.121577458679 gnorm: 0.162332778401 xtb: 6.4.1 (79825abcba525fcdf90b791dcacef51065a7a4e7)
C         1.09823294168624    0.98696544971854   -0.05974272900727
C         2.55635139946513    0.33600218000319    0.34407196665794
C         3.32254743724862   -0.30725140999750    1.73979183092829
C         2.45821989463802   -1.22526020614940    2.67157508380399
C         1.07120783969945   -1.09727570407835    2.09221870236711
C         0.19833969242821   -2.12485603743921    2.80008097871464
C         1.13120279425689   -1.60945910204771    0.47266372309582
C         2.23846405052070   -0.93372393344540   -0.44339213964127
C         3.41208947307098   -1.84490750278282   -0.76460413439643
N         4.67858392903020   -1.32262931355806   -0.81958785638860
N         3.27785934056170   -3.07540997373471   -1.16307261001358
C         0.60382457371801    0.46170989509415    2.30726654664760
N        -0.62040502253099    0.87848816374543    2.17237726046896
O         1.50172204062714    1.34998431275836    2.70584745673548
C         2.08148155841096    2.54192919204920    2.09181833773063
O         3.35869451290500    2.38777921847321    1.42517733916652
C         3.49183842054852    1.51971899404205    0.26042873906218
H         1.22843520620791    1.26877453634983   -1.10942342873403
H         0.82920659547254    1.99523687516422    0.29204953652537
H         0.22068374072246    0.36015958555829    0.05665689683648
H         3.81962816420159    0.49272126475753    2.29449869915007
H         4.12188474288381   -0.83951278838117    1.19938741230963
H         2.66958650012307   -1.00297326417564    3.72173689218740
H         2.69528392492167   -2.27651289342278    2.46391147424715
H         0.46318107154195   -3.13894124071030    2.50516606868397
H        -0.85633648944768   -1.93822460341238    2.53296222297294
H         0.29117880743615   -2.05652936449576    3.88954325651086
H         0.09027644453568   -1.54007604798855    0.13848148510638
H         1.49161492134040   -2.63032839958658    0.68721954608719
H         1.74043989990450   -0.75194024608763   -1.41135107021118
H         4.83594968850285   -0.34499735016500   -0.97189472344582
H         5.42300767025849   -1.87676653383182   -1.22793785722932
H         2.35912216813172   -3.50632071517420   -1.08324705745439
H        -1.27148887962130    0.09635462306379    2.10806823024363
H         2.27941609560406    3.11962550106222    3.00073281305863
H         1.27538240563361    3.09266899946572    1.59753647120458
H         4.55459179579693    1.26844903780400    0.24984231737889
H         3.30357145628502    2.15969132385768   -0.60857403420957
