38
 energy: -53.125049828843 gnorm: 0.143062830451 xtb: 6.4.1 (79825abcba525fcdf90b791dcacef51065a7a4e7)
C         1.05236475786049    0.98127944212659   -0.11829724756248
C         2.48296974346091    0.26340107696586    0.27022425322921
C         3.22818482285123   -0.44961877692847    1.64322194753216
C         2.35650079534637   -1.26358138311980    2.66089287555780
C         0.99785820200872   -1.07944997834871    2.03158990771601
C        -0.08337855045965   -1.90232556738551    2.71911590716974
C         1.19556049472170   -1.70090053668462    0.46200316648755
C         2.23195639125017   -1.01532708328655   -0.52677205210930
C         3.53555805370782   -1.76090188299830   -0.76250541738974
N         4.36871796162819   -0.89472236260590   -1.42234141878487
N         3.87625558553539   -2.96100403792146   -0.39561143287210
C         0.59940601664232    0.48548944933207    2.32710511045394
N        -0.54917326426966    1.08809421798387    2.41804722663637
O         1.67762218408883    1.09312760971626    2.79863859994358
C         2.30226073018861    2.31919074479184    2.30824962496189
O         3.40139617838187    2.16133510933657    1.37742835248730
C         3.46406251472327    1.40431772165140    0.13207989849368
H         1.14346755899672    1.14627545838487   -1.19657140403466
H         0.87350790025733    1.90752302734208    0.44988167686508
H         0.26693789876126    0.27522668855544    0.12892983090165
H         3.85338733875921    0.24306095434898    2.21248624670388
H         3.90198822114938   -1.15598282962138    1.13202917860555
H         2.25631243930059   -0.84363733480690    3.66614729762338
H         2.54297198061367   -2.34392280267475    2.71135718778118
H         0.13502785547842   -2.93971193554717    2.47089679320821
H        -1.06160555200465   -1.71693226432813    2.24243275478940
H        -0.19292986054111   -1.69097918957535    3.78848343429123
H         0.24912519408853   -1.74460476529519   -0.08787827444937
H         1.50261154776210   -2.74302819612196    0.65641202196835
H         1.81955856136087   -0.92836212680244   -1.54676370870454
H         3.96904222488296   -0.01808757353042   -1.69710746119940
H         5.28257456531894   -1.14767110620976   -1.78132266007144
H         3.10307378338656   -3.26869399291726    0.19060608616806
H        -1.31298972296791    0.52854550961919    2.03953913675769
H         2.67422753702474    2.87658000109480    3.17427187565341
H         1.55846115318524    3.00750871885869    1.89544784942596
H         4.49489885023220    1.04488440993267    0.10245638410339
H         3.27311655969063    2.02991108973855   -0.74675309838442
