38
 energy: -53.119485710316 gnorm: 0.148168770080 xtb: 6.4.1 (79825abcba525fcdf90b791dcacef51065a7a4e7)
C         1.13671121153851    1.13318423297185    0.00813805781125
C         2.54246812309814    0.39069786525364    0.43882404701958
C         3.21023570110083   -0.44895722695299    1.77969364734899
C         2.23818232926003   -1.41128102267747    2.54589690886390
C         0.85655021387042   -1.13692309802038    2.00584438134457
C        -0.17739341587193   -2.05191790987240    2.64821047889775
C         1.05589243047692   -1.50446459854192    0.35840228086170
C         2.27677553774034   -0.84723629505713   -0.41574190554128
C         3.50369433595334   -1.65585445295291   -0.80514682027748
N         4.22098926412485   -1.16865758535365   -1.86718877916606
N         3.95105924547954   -2.82669395880044   -0.45883675788759
C         0.62532249856374    0.44349086431134    2.38525742362766
N        -0.55130071120371    0.97255114698702    2.22311430003491
O         1.63950944652417    1.12985928586814    2.88967914224287
C         2.42576068385304    2.25826189989825    2.39733578282966
O         3.65441950615368    2.13711215496696    1.63893905003998
C         3.57817863556765    1.48614104720612    0.33574331986105
H         1.34857837583418    1.60173423647238   -0.95818060664687
H         0.81736119490433    2.06384099139812    0.50274679707975
H         0.24342472877093    0.51818150936026   -0.01024599484764
H         3.69649104417633    0.25761688175926    2.45722889445672
H         4.01813368102801   -0.90281916925064    1.18338044741780
H         2.25347348145055   -1.23237365528504    3.62510286600751
H         2.42890736405972   -2.48054484990672    2.38856107192666
H         0.17010848193527   -3.08329404272166    2.67967892608474
H        -1.14725833506147   -2.01355202196383    2.12245800579491
H        -0.22216805774178   -1.82249826506792    3.71852704425940
H         0.12102441484817   -1.14564973033401   -0.08577463058074
H         1.15881189834737   -2.60129440839907    0.29149070764738
H         1.89087197081735   -0.54887216248012   -1.40572935021458
H         3.88056130061585   -0.40529644797419   -2.41956020783401
H         4.73135006153380   -1.88430836579916   -2.37252065808529
H         3.37777417819269   -3.30271071164736    0.23462301651819
H        -1.25559687935926    0.23537628198191    2.24097051157187
H         2.77841652150744    2.67614866300712    3.34604076500460
H         1.69054021524733    2.95208305593654    1.97842312787251
H         4.56759516117527    1.07050917860309    0.13326246930000
H         3.46058541646044    2.28740122352765   -0.40204311066946
