38
 energy: -53.126385986469 gnorm: 0.144726641618 xtb: 6.4.1 (79825abcba525fcdf90b791dcacef51065a7a4e7)
C         1.02565853711415    1.03321551597828   -0.15585700525618
C         2.44178031609561    0.33474230834349    0.31282539481759
C         3.28345012374006   -0.34823074090629    1.64474327279788
C         2.47609675471211   -1.22946231358116    2.65945196750708
C         1.07616714473659   -1.13429459449280    2.10539737623716
C        -0.08622049568388   -1.98052274099978    2.60703674305932
C         1.26058211074413   -1.73370677151514    0.52565508035976
C         2.29599974524682   -0.99481219149266   -0.42500204737204
C         3.49852886077031   -1.87169192583072   -0.73457419296262
N         4.56967456042530   -1.17370859328781   -1.22982370912522
N         3.61157630935666   -3.16661143033071   -0.77111079081200
C         0.73030718611794    0.43778065686828    2.42802581399617
N        -0.44635528483068    0.98636622535645    2.35621591335285
O         1.76237864316431    1.17728379248058    2.80496306500583
C         2.11957449346675    2.49754681001607    2.29193073873807
O         3.26147634032702    2.41151099263197    1.40417886423673
C         3.33497195972149    1.55066642248250    0.22883203213528
H         1.20730063290503    1.12901666600497   -1.23104389611171
H         0.76392318662220    2.03232251483264    0.22627392470602
H         0.13041835434613    0.47342150344267    0.09254335775578
H         3.70122260616384    0.43011796850518    2.28847045064325
H         4.07694202205817   -0.94832640728512    1.17089199407328
H         2.51769516434944   -0.84681908575309    3.68355200822595
H         2.77598000371563   -2.27425587432911    2.81088571753776
H        -0.05501508768245   -2.95818517243862    2.12882449050777
H        -1.07880050698457   -1.63929441099458    2.26516876244493
H        -0.19543114312455   -2.16539315035686    3.68133262992383
H         0.27529367043520   -1.65537684268893    0.05333045040900
H         1.59371037385790   -2.78084644215520    0.62875348815569
H         1.83106585345490   -0.79560617422081   -1.40590535180562
H         4.30060010158199   -0.27136103440880   -1.57201290067407
H         5.39250348255048   -1.63528472730992   -1.60115176407313
H         2.87727380388932   -3.62165760925960   -0.23271782563915
H        -1.15897483888067    0.42238517268638    1.89374704044328
H         2.37051758385448    3.08259950883788    3.18287267521031
H         1.26124852893103    2.95276887711641    1.78846856462859
H         4.39407896977028    1.29720982464005    0.31096300902183
H         3.15393001489750    2.16657410494639   -0.65889336995236
