38
 energy: -53.123294999768 gnorm: 0.157081308594 xtb: 6.4.1 (79825abcba525fcdf90b791dcacef51065a7a4e7)
C         1.20981691652200    1.10159268748432   -0.04437352776919
C         2.57954619120121    0.29268463240773    0.38275451484222
C         3.30071436679649   -0.37844137502623    1.78930057007612
C         2.27173120086836   -1.19531321782691    2.64483332878498
C         0.90125777034422   -1.09085019354063    2.02296008397237
C        -0.04773580603669   -1.95577207797910    2.84162390079143
C         1.16923859506729   -1.66783020714234    0.44683514111914
C         2.28675080015981   -0.96391767150537   -0.43491165541469
C         3.52949799234991   -1.78422045536343   -0.74070894844935
N         4.45403529181060   -0.98687919446695   -1.36463491325793
N         3.75219949833172   -3.06512732927982   -0.71595475645824
C         0.50716121262168    0.48556312249364    2.25692103523548
N        -0.72496426823549    0.90089508396130    2.25878984016748
O         1.54812227035501    1.15079164683448    2.73440309967127
C         2.18894245378303    2.34011759102277    2.17876047067232
O         3.36402701448052    2.36293568102535    1.33135209321030
C         3.61519214969904    1.38782736714548    0.27590195416251
H         1.35880565941679    1.31820533576228   -1.10695522972677
H         0.96004396166653    2.08350819459457    0.38713503441136
H         0.36283289229015    0.43572652460506    0.08119468946369
H         3.80885545982622    0.37650326589085    2.39477265707594
H         3.98614209112990   -1.17716376087256    1.46294092909622
H         2.36979596670718   -0.97313906586783    3.71158029806103
H         2.48402655476878   -2.27171974166218    2.61771488332767
H         0.43271894455521   -2.93269538352438    2.82523337913043
H        -1.01593046214535   -2.07198962761923    2.32430567078126
H        -0.18738571073268   -1.55472309278453    3.85151166768079
H         0.26438781408227   -1.68034341054720   -0.17050423475447
H         1.40750914478600   -2.73945282431803    0.56066531317643
H         1.73811609251924   -0.72158795249459   -1.36135329072415
H         4.11766287861882   -0.19214812586109   -1.87353740640600
H         5.26432264259015   -1.42342962265863   -1.78989085783833
H         2.98480672952925   -3.55841307472867   -0.26438893956252
H        -1.31394313117984    0.08756666494930    2.08164724550035
H         2.66987195549439    2.75739226313176    3.06961696309934
H         1.41002753892191    3.03708359354915    1.85479336436752
H         4.68438579030442    1.16537584105762    0.28170390196395
H         3.51754936478309    1.98876698737667   -0.63487370660672
