38
 energy: -53.132905333044 gnorm: 0.155404636924 xtb: 6.4.1 (79825abcba525fcdf90b791dcacef51065a7a4e7)
C         1.07085726580342    1.10176907805700   -0.09678073362568
C         2.49796997060351    0.38014173222712    0.29759495516507
C         3.27283780768840   -0.34691183837366    1.64660881955994
C         2.45161463921504   -1.30188190713452    2.58022916023588
C         1.03536448272070   -1.12785188311054    2.09055036685075
C        -0.04491955819476   -1.97062315287182    2.75508939069239
C         1.13573638996081   -1.64201705481533    0.47362452626944
C         2.27254870060781   -0.95974774175791   -0.40042933148577
C         3.52759165278339   -1.76187826268319   -0.70421054996472
N         4.49194944632858   -1.14898308023739   -1.46195684053224
N         3.68931332719997   -3.02938695203480   -0.46296591245008
C         0.62986087664189    0.43503074492487    2.38735586093663
N        -0.60987161956462    0.82611515037850    2.35990296676715
O         1.67046624882308    1.13429420676789    2.81430915390050
C         2.17704468796405    2.36937869743536    2.22115652415907
O         3.32217202732426    2.30096622370060    1.33603027549395
C         3.47335367398251    1.51948041037145    0.11360678369907
H         1.19391005463264    1.10753674883911   -1.18444948179850
H         0.95643765431567    2.16615158765480    0.16156449318489
H         0.14985055919913    0.58418735158002    0.14894850101251
H         3.78104367134291    0.43471203994301    2.21716656822844
H         3.92310127224899   -0.96705977199355    1.00875836142434
H         2.41775084380900   -0.98396417388173    3.62651244791694
H         2.78621154237090   -2.34439672665848    2.50497302642243
H         0.29697573269645   -2.99707924157194    2.87748247666017
H        -0.98100102557163   -1.87774806615139    2.17746384281109
H        -0.19898782532448   -1.51766451024377    3.74063854184381
H         0.14807403069196   -1.61576845779661    0.00049294213813
H         1.23200442708576   -2.74135745599655    0.45664398612848
H         1.88356231886956   -0.78892082427163   -1.41901933651306
H         4.50764418581342   -0.15516548886676   -1.33623536357601
H         5.33680277419895   -1.68890891885559   -1.61258030493296
H         2.99470839665129   -3.45116918267392    0.15002504447991
H        -1.36600574596580    0.20039544416045    2.08328999523801
H         2.58189063230293    2.95651962609986    3.05206080118230
H         1.35023322870088    2.91017972194676    1.75068674950933
H         4.53750621364374    1.29303215662555    0.20844324746348
H         3.17216465696208    2.07732897689019   -0.77984998892111
