38
 energy: -53.121330391602 gnorm: 0.163045421927 xtb: 6.4.1 (79825abcba525fcdf90b791dcacef51065a7a4e7)
C         1.12748694622792    1.24920175377274   -0.10495590471365
C         2.52412102096431    0.42923323486968    0.19503374838964
C         3.27147785557431   -0.30421826498121    1.55605252991097
C         2.49024366151227   -1.36802300993031    2.40222914174882
C         1.04268011608247   -1.18612057689954    2.01842248066200
C         0.00941173245754   -2.06738689996420    2.70734572461039
C         1.01201538515505   -1.49715593329420    0.34773214276560
C         2.14510258231442   -0.84648780163033   -0.55479109525988
C         3.29288775692376   -1.81098652556810   -0.80610889807936
N         4.40025567721737   -1.28472275138116   -1.41977708418582
N         3.47086594838111   -3.04471314917491   -0.43573943330295
C         0.72467338366364    0.36018780207851    2.46890101362276
N        -0.50691512538389    0.77418452568446    2.51823464175320
O         1.72166191317308    1.10392749719196    2.92385505585181
C         2.30898220587348    2.33473328345269    2.40035010047121
O         3.42045609201028    2.29007267785435    1.47186930586732
C         3.49231131529045    1.58937324444781    0.19446871530162
H         1.36762936087180    1.64974301239424   -1.09495433073182
H         0.88972105701495    2.12867414354188    0.51370388329744
H         0.27275765563718    0.58140217890001   -0.10789366429061
H         3.64751263529938    0.40846819421612    2.29457882362186
H         4.12270494724409   -0.82746804761037    1.09140068538224
H         2.64594691686777   -1.22200603153353    3.47524484087255
H         2.86836080532205   -2.38913197874326    2.26504452517978
H         0.34181250310153   -3.08982062422860    2.87946068451151
H        -0.99630030963300   -2.17882899640315    2.26615472007975
H        -0.22502699234322   -1.65440039889586    3.69461282221937
H         0.06881064123937   -1.15245117858430   -0.08994682069566
H         0.98746268776218   -2.59928628357397    0.29471272054627
H         1.82748772416422   -0.62899626094307   -1.58911989455964
H         4.44674504069033   -0.31451669272963   -1.66526549419559
H         5.20996349240872   -1.89492834716294   -1.41715547417080
H         2.71248864014920   -3.62010508948143   -0.07529229137301
H        -1.26502932280853    0.14149214284907    2.26379030193740
H         2.93209267767893    2.70170713714908    3.22260319943634
H         1.47217090381906    2.98050512256714    2.11724178485467
H         4.53825901423073    1.57607690337571   -0.11939429876320
H         3.14146113677376    2.31768712633793   -0.54488092344428
