38
 energy: -53.130295535675 gnorm: 0.155283643827 xtb: 6.4.1 (79825abcba525fcdf90b791dcacef51065a7a4e7)
C         1.19981394495325    1.08259153284163   -0.09884504337179
C         2.54727282690501    0.28529577371364    0.41262631605543
C         3.28815742028483   -0.35951225986921    1.82123488174778
C         2.39073072004531   -1.38687944406481    2.59399892392638
C         1.01558513169492   -1.11372186954674    2.03704664135319
C        -0.01997041860404   -1.96594036325066    2.75832155186593
C         1.15290613622247   -1.62107597392226    0.42068520204076
C         2.27813952058561   -0.93527986216990   -0.46550741258189
C         3.46509653833385   -1.81477214093250   -0.82391445023158
N         4.53106344304356   -1.11836432815265   -1.33237942897925
N         3.61469958055521   -3.10310445023968   -0.73037328053366
C         0.64479269900121    0.45047831985319    2.37009251852882
N        -0.59125890278635    0.85352699063335    2.35097279554134
O         1.69269524050167    1.17967855526641    2.72263378253700
C         2.06939891798206    2.49740508120455    2.21708792422812
O         3.29864618358665    2.37294806227584    1.46018172816305
C         3.43997551303084    1.49931557978611    0.30057513063369
H         1.41100173377301    1.31278358348345   -1.14794460938660
H         1.11283817443281    2.08733728701693    0.34349580584424
H         0.28232169784730    0.51869044270309    0.03057906800724
H         3.72781806152540    0.44778194673005    2.41260601602333
H         4.12780253452098   -0.89679432139473    1.35155061941835
H         2.45081241540492   -1.11860881693284    3.65293623108051
H         2.74663536226867   -2.41621896095890    2.45891460725853
H         0.36245885033913   -2.96478515042639    2.96213889170757
H        -1.01739940354232   -2.06791591037407    2.29651859396034
H        -0.23950004381229   -1.41720116500284    3.68076815444511
H         0.13297946841079   -1.66198651950031    0.02307314321748
H         1.27974668507093   -2.69847768229590    0.62371782387753
H         1.81188882256115   -0.69550622635304   -1.43665968347280
H         4.45097050470472   -0.26947023950518   -1.85839232375940
H         5.15693705575879   -1.80470329220506   -1.73883427513312
H         2.77720417399829   -3.60727039934730   -0.44655588091709
H        -1.28254937506667    0.17480196363524    2.03280847563154
H         2.39190535325291    3.13824212890640    3.04434490167694
H         1.25138261592643    3.04416416619257    1.73820528653310
H         4.50180399216406    1.24411081935290    0.29139854953942
H         3.41509901616865    2.06851032222391   -0.63514563511136
