38
 energy: -53.130245378979 gnorm: 0.161426500555 xtb: 6.4.1 (79825abcba525fcdf90b791dcacef51065a7a4e7)
C         1.05116076919571    1.04133539000062   -0.00879660148659
C         2.51700749837634    0.35039727720708    0.28586723386335
C         3.31096740011859   -0.33806831206594    1.64399397927000
C         2.47125422061340   -1.25473265952464    2.59931094664310
C         1.05677185161194   -1.17892915264108    2.08034106466088
C        -0.07222369441825   -1.95688694188996    2.74294190848509
C         1.09314921300134   -1.58455718485876    0.43017981874236
C         2.26122481584013   -0.96421844800490   -0.44878721244320
C         3.48502357120444   -1.82936404605768   -0.70308806589148
N         4.50566297214935   -1.17296202820969   -1.34123970038675
N         3.59852452482615   -3.10811865955569   -0.49612110090303
C         0.69860854053465    0.41198385717263    2.26966535205087
N        -0.52868256674581    0.83871674570924    2.31755017467574
O         1.67098095641621    1.13686813648782    2.80178634248307
C         2.19583593912752    2.37517875052065    2.23169903130922
O         3.23494634752017    2.46916606214718    1.22628304333769
C         3.43274782931713    1.54069052159562    0.11871684327545
H         1.15088386578241    1.19106880174998   -1.08853442608965
H         0.98088940023504    2.06674606007917    0.38660082898636
H         0.12098188041908    0.52219390018035    0.19562061781675
H         3.88683335585550    0.34615693329728    2.27245196404107
H         4.11566221437003   -0.93093150727664    1.18003415773872
H         2.46954262401918   -0.80659317844866    3.59735665424939
H         2.81909111658180   -2.29561997014996    2.59497216984778
H         0.23229964217925   -3.00190524681917    2.76914956724277
H        -1.01094147150526   -1.88210647969218    2.16697108961928
H        -0.20098926869995   -1.61006533528329    3.77413049120165
H         0.15548421362494   -1.44281785056869   -0.11819390708729
H         1.07462398121147   -2.68792237397953    0.44881512319874
H         1.94074924195714   -0.82494878189272   -1.49564785223309
H         4.44023692574073   -0.17475510331151   -1.28621254835454
H         5.43109205383565   -1.58644653645090   -1.36565399698959
H         2.84007655303739   -3.59940145326801   -0.02757861519509
H        -1.16361977157472    0.09995298303387    2.01611764344562
H         2.75880129161345    2.75947039030493    3.08868594963420
H         1.27695215872454    2.91495970092006    1.98327625581542
H         4.49247433241375    1.29785485895801    0.22217683361292
H         3.22017256749642    2.12481363111890   -0.78338447630827
