38
 energy: -53.126799244006 gnorm: 0.150761489552 xtb: 6.4.1 (79825abcba525fcdf90b791dcacef51065a7a4e7)
C         1.09341246938343    1.07201708348263    0.07282006694411
C         2.53347353756230    0.35454487633359    0.42550497472160
C         3.29054512863955   -0.47069677531023    1.72730537125139
C         2.33243801610976   -1.38738926339692    2.56380276933187
C         0.95264872163244   -1.11858763390292    2.01629619818589
C        -0.21839524806584   -1.96933911270658    2.48933642574818
C         1.12328464011586   -1.59735100065391    0.39439652855810
C         2.25618282977890   -0.86855548332987   -0.44655685067286
C         3.44864980037154   -1.72353519467359   -0.84387463000025
N         4.27386548578858   -1.24486789808224   -1.82860940682425
N         3.67439860346176   -2.94493064619274   -0.45895675526866
C         0.70647569935344    0.45987634910856    2.39442194117555
N        -0.44754491748354    0.99180231567490    2.66997325296161
O         1.83917533565698    1.05001028688591    2.74492376591119
C         2.30178620616384    2.36297471228155    2.30220368642836
O         3.47205362178831    2.30817890175749    1.44960942631652
C         3.45795955959574    1.53114574036341    0.21513950736152
H         1.13537470569224    1.29722000388605   -0.99756368285739
H         0.98805112130068    1.98213194524689    0.68383083847646
H         0.26989815269538    0.36720487274893    0.11270713294104
H         3.81574769644109    0.27278074032467    2.33240757261803
H         4.00130507922143   -1.15357516239416    1.23458168576635
H         2.37421982950951   -1.15581859461182    3.63223922234382
H         2.66854441567513   -2.43192241343359    2.54285756658135
H        -0.07369026019130   -3.02787035640386    2.27943972725807
H        -1.16962354769814   -1.60711419611740    2.06215567880270
H        -0.32289511280913   -1.88499260531229    3.57661795861852
H         0.23649334631368   -1.52370214226615   -0.24450602211878
H         1.28153043274066   -2.68617344219398    0.48116727758335
H         1.79662253014744   -0.42895028640553   -1.34853769248846
H         4.24267226106836   -0.27029907940126   -2.05875764821369
H         5.21546578884054   -1.58153850966636   -1.66119896040978
H         2.97120737312972   -3.39047012483612    0.12683402043257
H        -1.18007684153293    0.32605218441608    2.42512133497882
H         2.77255503966545    2.85442483588574    3.16004406259471
H         1.51056600332097    3.07090533828072    2.03719507129141
H         4.50302598274291    1.21451959150781    0.19848263797447
H         3.30483056132198    2.27562513781011   -0.57383246566653
