38
 energy: -53.126776285182 gnorm: 0.155644540206 xtb: 6.4.1 (79825abcba525fcdf90b791dcacef51065a7a4e7)
C         1.14485976248997    1.05110933228010   -0.07118776450656
C         2.57677096907343    0.32691443720983    0.30043159677905
C         3.35613753633144   -0.37038722322434    1.66249753461435
C         2.44873042721665   -1.31563071565556    2.52339784707304
C         1.05835068910127   -1.08782578420138    1.98415266724423
C        -0.05431588308925   -1.85385422475887    2.68704858470818
C         1.19281633396667   -1.60095207213917    0.36937407003001
C         2.33142083556891   -0.93926698228955   -0.51806969215156
C         3.57902094393577   -1.77784612265692   -0.74414093719847
N         4.37282733118037   -1.43511719638589   -1.80819648006374
N         3.75037296488391   -2.97954465101933   -0.27778239922017
C         0.64584864447452    0.46672521495013    2.31330618890386
N        -0.55890140864645    0.95477384334975    2.28131878926820
O         1.50252973239610    1.15535556807759    3.05222689820870
C         2.07333784732523    2.33496098945940    2.40678548273809
O         3.27640223056948    2.27037523301323    1.60185683173757
C         3.44455378793171    1.56341445468598    0.33701429357274
H         1.17066506297335    1.18815185700386   -1.15689121875539
H         0.92553601801641    2.01862136958643    0.40689359656457
H         0.28201576720982    0.41851069864820    0.10726746336822
H         3.81581814963732    0.48240672069953    2.16864124805518
H         4.10823792637504   -0.96824610006545    1.12287822096583
H         2.49838124545929   -1.02135871210250    3.57594995306248
H         2.77230264761305   -2.36101766640818    2.44019411668816
H         0.15901721266941   -2.91343316000418    2.81844883613533
H        -0.94885215221470   -1.78014183676386    2.04447802929499
H        -0.35229245952709   -1.39326878446252    3.63535586667611
H         0.22105851979460   -1.50912411318210   -0.12789225528444
H         1.34795890042622   -2.69194021726583    0.43086265229325
H         1.86283231891393   -0.72534492678427   -1.49412295981680
H         4.23845190468805   -0.64203321459937   -2.40542897363268
H         5.15209147833226   -2.05685741458521   -1.99305040100344
H         3.21451184158761   -3.19748715310086    0.55976646228714
H        -1.26822926909566    0.46620918132195    1.73548249034163
H         2.51286118077425    2.86837810980761    3.25609228670657
H         1.21653138150446    2.92039594089272    2.05954875467559
H         4.52078226072974    1.37830016252654    0.32443020330742
H         3.24001308460955    2.22744101507431   -0.50998432850418
