38
 energy: -53.122771415854 gnorm: 0.149877444823 xtb: 6.4.1 (79825abcba525fcdf90b791dcacef51065a7a4e7)
C         1.02187491251906    1.01257228659653   -0.09993305168496
C         2.45590590269477    0.32129436868803    0.32270019099823
C         3.20521789059412   -0.29147039492067    1.74112056015391
C         2.39607254365478   -1.28779205801201    2.64148116591233
C         0.99973663632276   -1.10923522670904    2.09907930784891
C        -0.04467546737374   -2.04766444429022    2.68852233782906
C         1.21998251913083   -1.67912110518275    0.51301141969409
C         2.27581759224588   -0.98478589449874   -0.44871344783317
C         3.49665516435646   -1.82005902695097   -0.79900422119795
N         4.76040313819514   -1.28911100189435   -0.82800663685617
N         3.44709522801364   -3.07997423343273   -1.11694862251686
C         0.67948356531766    0.47277353906675    2.39877079658927
N        -0.49600361576598    1.01877028688584    2.50247602521934
O         1.68161388194040    1.21742184867292    2.84075695938882
C         2.16940103658224    2.42406404970323    2.17745932318140
O         3.29879236911895    2.29261897641644    1.27932637888946
C         3.32453624531517    1.52481910487537    0.03927969711953
H         1.16328386928097    1.21701520103026   -1.16595610977601
H         0.85278399763178    2.02684401410376    0.29428181623967
H         0.08851398778164    0.47508018205523    0.02838950267647
H         3.69058414134164    0.51354780250640    2.29889339510908
H         4.13254188736667   -0.77962395205806    1.40045130580721
H         2.45122683602703   -0.77661655415921    3.60718545415841
H         2.90700599074368   -2.25834196817884    2.60359180237570
H         0.55560148425291   -2.94518657222270    2.82854439596724
H        -0.81403789892043   -2.17373035968052    1.90704015414661
H        -0.41398243464774   -1.71036193437367    3.66323002091006
H         0.24372137544375   -1.75252515175258    0.02153868095102
H         1.58507873822966   -2.70910369517221    0.66775579581142
H         1.75320789745513   -0.82681333676339   -1.40784931653091
H         4.99233205998554   -0.31895875067785   -0.73452299513094
H         5.46293973408354   -1.87211909403502   -1.26906034860315
H         2.46126597637641   -3.32389049631758   -1.18608416918419
H        -1.24083281557738    0.33296987952743    2.38129030628546
H         2.58197211584808    3.04002862958316    2.98331872083220
H         1.38794783950261    2.92829421731752    1.60082461398048
H         4.41204182373404    1.45842624353227   -0.03566693681311
H         2.90937084034919    2.22891200768976   -0.69014865401747
