38
 energy: -53.127463761110 gnorm: 0.151157907511 xtb: 6.4.1 (79825abcba525fcdf90b791dcacef51065a7a4e7)
C         1.16746860232184    1.21904841168622   -0.06021492500274
C         2.53587281304128    0.37903132529745    0.30689559210807
C         3.27655818294970   -0.38782100386190    1.65307098079950
C         2.40174136227814   -1.41896766833260    2.44645258290774
C         0.96686409213416   -1.12224005556958    2.08740352321393
C         0.00299481464130   -2.14810476384962    2.66830518373687
C         1.05639353027275   -1.52266832827969    0.43800023458717
C         2.22698979539837   -0.91386977863117   -0.44566968166306
C         3.38866667789572   -1.79831523144587   -0.86886265332091
N         4.44417792364811   -1.18922980125061   -1.49712760614792
N         3.45447311749444   -3.07837075229388   -0.64964007466604
C         0.67891839138412    0.43582787860136    2.51710149939302
N        -0.50016829704880    0.97028631206378    2.63853502635000
O         1.72874688253336    1.16856501779943    2.85632777725332
C         2.22760026555492    2.42732643200121    2.30810294745635
O         3.36166790689909    2.32072166432940    1.41257439873940
C         3.47717814140257    1.55393341791649    0.17702256583510
H         1.29526631404063    1.27640412137268   -1.14583761912041
H         1.27521439800500    2.26453043527964    0.26857440888575
H         0.27328190518603    0.65460531385545    0.18136571638708
H         3.67684768454088    0.27391020531537    2.42548625804869
H         4.11453796845792   -0.92961754968977    1.18560374090188
H         2.59400627704206   -1.14997716301483    3.48933583243062
H         2.83118787222966   -2.40450678275715    2.22567198189121
H         0.35456160068018   -3.16074774842493    2.47741375601559
H        -0.95966361595791   -2.17971276501694    2.12903229949742
H        -0.18573948780229   -1.96150597402838    3.73121437087410
H         0.07349812963667   -1.44750920326429   -0.03979382761638
H         1.14530989256015   -2.62264870981060    0.45356459765065
H         1.71491255205181   -0.63421737870683   -1.38246703628893
H         4.54968298015543   -0.20013168130463   -1.61662322801991
H         5.27936444468366   -1.73046522339166   -1.69080820863343
H         2.63468409356490   -3.44004223854539   -0.16665573794452
H        -1.29973943903350    0.38390779981838    2.40057507465566
H         2.64333941647077    2.70767575312486    3.28155138060774
H         1.40435224047363    2.99812914970094    1.86779431148073
H         4.54037528671631    1.30514442774387    0.19725300398575
H         3.24106510788701    2.16423707144873   -0.70158709605954
