38
 energy: -53.117807114217 gnorm: 0.162544045620 xtb: 6.4.1 (79825abcba525fcdf90b791dcacef51065a7a4e7)
C         1.22164656781248    1.26275641024186   -0.20665413769470
C         2.54234125210604    0.43227020386165    0.32153818993736
C         3.25594119816274   -0.30480575695134    1.69862193811308
C         2.36637992369472   -1.42108308542847    2.34718029906755
C         0.92247627885039   -1.11829322270407    2.03206626108364
C         0.04880292157001   -2.18816633363003    2.67312438867636
C         0.96393338612229   -1.41665900209111    0.35929947235460
C         2.28090705990656   -0.90622203684575   -0.36653680339430
C         3.49886798646206   -1.80467128386761   -0.50862624390644
N         4.53150177832422   -1.25398430305337   -1.22292116857574
N         3.65645635816595   -3.08308204325795   -0.33040442017441
C         0.57121016191704    0.43692347394456    2.42327199134844
N        -0.69384120202161    0.67536071237548    2.60611091483000
O         1.52785581800592    1.31043479215250    2.69881705952508
C         2.12405807754140    2.47691666637672    2.05248252252316
O         3.39791729877072    2.34116538479669    1.37550421047904
C         3.59547129488526    1.50838984432410    0.19425381927274
H         0.91479496744089    0.84341716820375   -1.17008304339152
H         1.46078680024579    2.31877333014522   -0.40761298318704
H         0.32467666932342    1.04265537280837    0.36214072868647
H         3.73582647541516    0.36912163465904    2.41295885384301
H         4.09848830118044   -0.74505291150431    1.14132842009460
H         2.43680360986908   -1.35867561649891    3.43716790258276
H         2.65063194030445   -2.42046144243429    1.99376917134582
H         0.40846494644880   -3.18980564421214    2.44324076988213
H        -1.03586772736301   -2.20759907542862    2.46907167788684
H         0.25810122148429   -2.16955599390984    3.74832835448203
H         0.04389097165280   -1.00302654388781   -0.06784170574033
H         1.00551063019262   -2.51799778419138    0.30073806456990
H         1.99666693562303   -0.78791384429643   -1.42636159531949
H         4.50920138497704   -0.25345917550694   -1.26958793647930
H         5.30706110024573   -1.81491571286111   -1.55735828150856
H         2.87669965095425   -3.52666351147922    0.15058324977867
H        -1.34370151253312   -0.05150014185185    2.30755842994770
H         2.44248556893944    3.05330962511861    2.92736063686738
H         1.36351668085557    3.00492706509358    1.46921025177783
H         4.63253256829362    1.20784289737202    0.35817103397435
H         3.47910921009166    2.23758492897472   -0.61501081749469
