38
 energy: -53.075997568261 gnorm: 0.167625100589 xtb: 6.4.1 (79825abcba525fcdf90b791dcacef51065a7a4e7)
C         1.40829141267718    1.52776627465532   -0.49337864991902
C         2.58527993952030    0.54508752327258    0.10826024298056
C         3.22294175441811   -0.05312762152494    1.58622895347715
C         2.45654245188532   -1.25806042706389    2.23336981802923
C         0.97999525124828   -1.25200942439007    1.92416434621246
C         0.13756871197457   -2.34449580852329    2.56889695706329
C         0.98900150587029   -1.35154696437580    0.22743198612773
C         2.27611294530520   -0.80880582099597   -0.52793549018799
C         3.28248756879116   -1.94461736520634   -0.43865224953985
N         4.55821449939716   -1.50450786839590   -0.68078929844753
N         3.22026098267227   -3.20656478474935   -0.13116611323197
C         0.58807073253665    0.22995458631930    2.51179231381244
N        -0.17960832026540    0.40861856409757    3.54590323337717
O         1.10682347597159    1.25157892322637    1.84749016593016
C         2.02466026963849    2.34416521898947    2.16008615545181
O         3.05452126427719    2.50094834681018    1.15298598726106
C         3.63049594455858    1.63614444581839    0.12913905419972
H         0.34331470518857    1.27607790049354   -0.51938084468636
H         1.74209598450611    1.84839815945419   -1.49263534370971
H         1.54758352740117    2.43906596134565    0.07816107096199
H         3.39196020893925    0.66395506369540    2.39367580100132
H         4.19227297779620   -0.40632564180325    1.19902439395442
H         2.73544506728921   -1.25142239209862    3.29124335473857
H         3.05222341860901   -2.14066456290572    1.96760705528027
H         0.61768187791146   -3.30136222374462    2.37044654543335
H        -0.83579819326317   -2.44809608117655    2.05865249217747
H        -0.01651054196219   -2.15700209519533    3.63722339369865
H         0.12864524285739   -0.81731465945849   -0.19018312776800
H         0.79996523229730   -2.42770070812998    0.07166416724059
H         2.07354455933113   -0.91096490464740   -1.60800373326892
H         4.69149422655650   -0.61497964205014   -1.12203941804238
H         5.35719604283112   -2.11131429894899   -0.53450554878323
H         2.30429512048898   -3.52270372129432    0.18059803990603
H        -0.56359035666476   -0.49653821933207    3.81613963251188
H         2.35280767977066    2.29604790884241    3.20365724322188
H         1.47128636083962    3.28340343731294    2.06504071268096
H         4.67150969280599    1.45774837459918    0.40691343284667
H         3.63031048957785    2.27256040426081   -0.76257252379360
