38
 energy: -53.133602904025 gnorm: 0.140529560157 xtb: 6.4.1 (79825abcba525fcdf90b791dcacef51065a7a4e7)
C         1.19297852050874    1.16610477181943   -0.02897336821312
C         2.53022973894198    0.29639218267256    0.38125597442127
C         3.15337664150285   -0.47680643952266    1.78222611138720
C         2.24569905721780   -1.44848655207703    2.61287733438393
C         0.90451249256319   -1.09462726990838    2.01971755488005
C        -0.18762777909277   -1.96659876400166    2.62451877043910
C         1.09342991353111   -1.57379968146663    0.39996646846531
C         2.27031451019832   -0.94910933913923   -0.46404074195713
C         3.48644364462474   -1.76270422278621   -0.87625736362508
N         4.14787956793930   -1.11768026983297   -1.88929860152910
N         4.02222022836362   -2.89558856638411   -0.52920163165516
C         0.62381904174522    0.49193177266195    2.33463093256202
N        -0.56282959752686    1.01629937905444    2.42146983843570
O         1.64284932133027    1.16280935110985    2.85001296972648
C         2.37007836540505    2.36034368434049    2.43657021133665
O         3.50673180268029    2.08332169557159    1.58174674129774
C         3.53880357039833    1.41741452826678    0.28427449943889
H         1.42876447636823    1.55395749828070   -1.02505258603890
H         1.16537759858403    2.08859160457816    0.57185978443790
H         0.19518527458015    0.74122064474861   -0.04920154014087
H         3.63067354861931    0.21396053484380    2.48206458675458
H         4.02832431436502   -1.04883841657704    1.43362142677296
H         2.31813477210009   -1.31522791936253    3.69635431492198
H         2.54178320887958   -2.45373100449789    2.28688115832614
H         0.15188373154411   -2.99895740924706    2.55779447898790
H        -1.20264789990893   -1.87713134265582    2.19995392927963
H        -0.17141213466771   -1.72057216402834    3.69195666770273
H         0.17810824937398   -1.36255571674014   -0.16357739362741
H         1.08431627319330   -2.67626640868775    0.45085132138936
H         1.83025031666831   -0.63253055107850   -1.42536235299887
H         4.23816713792467   -0.12994175941515   -2.03053035622080
H         4.96689017231460   -1.62114645853322   -2.21136679257090
H         3.41415005000963   -3.45240428739580    0.06774148828121
H        -1.33407860470958    0.38680054980566    2.20082326350816
H         2.76668964922789    2.79721305200533    3.35900247148528
H         1.66726072560930    3.09796596566560    2.03733908966961
H         4.57436155377076    1.08972855772899    0.17054247053218
H         3.31246459138468    2.13823363216907   -0.50905099809127
