38
 energy: -53.126639477602 gnorm: 0.160929574631 xtb: 6.4.1 (79825abcba525fcdf90b791dcacef51065a7a4e7)
C         1.05164414211629    1.06763952894135    0.09838506181040
C         2.51930619511073    0.35800706358430    0.33358449159925
C         3.34185679086985   -0.43924761710279    1.61290500230360
C         2.39096025541211   -1.22728399903680    2.57872937250351
C         1.01455802867381   -1.13717286409093    1.96780123587076
C        -0.01225230186820   -1.97969125539919    2.71259144467342
C         1.06922177236671   -1.60968325696452    0.33604287690951
C         2.17746713617061   -0.86142190635987   -0.52052060306942
C         3.35424465397736   -1.75690874488354   -0.87283756454677
N         4.48778516483919   -1.15582567868779   -1.35615006221472
N         3.42573759895314   -3.05529431681840   -0.87668866425537
C         0.70745412899192    0.41240766958638    2.41458549407491
N        -0.49664538956914    0.89321426215131    2.51259937642097
O         1.75087214066504    1.13271053824479    2.79741794331247
C         2.28738069671578    2.39695266526859    2.29968721635981
O         3.49135526562467    2.18349726852695    1.52230223708047
C         3.48875321772958    1.51220600311865    0.22721288652024
H         1.20858110313870    1.39569234486738   -0.93406382550200
H         0.88156603319629    1.92746406643142    0.76510797423570
H         0.17938459456632    0.43182716064724    0.20531015325303
H         3.91245855601805    0.30391510960700    2.17581531945780
H         4.09591790129615   -1.08714820488265    1.13761992992052
H         2.57522840955197   -0.83567524928967    3.58352536546096
H         2.54699981327381   -2.31139107226454    2.64815015368244
H         0.19293384841748   -3.04891741457157    2.70081764195457
H        -0.97753613662969   -1.88539005708269    2.18546719539651
H        -0.13997391256475   -1.62718088119252    3.74197928076252
H         0.04308461288239   -1.39160502052452    0.02060056252287
H         1.27239555664595   -2.68998771230366    0.43487557398983
H         1.71568520006376   -0.59236117802464   -1.48611969785411
H         4.58184854645695   -0.17874987651480   -1.55665086291612
H         5.30452454800254   -1.70133521706440   -1.60782566110019
H         2.55125009805307   -3.50709094548568   -0.61729399524336
H        -1.21175054588105    0.20326907382516    2.28373485878746
H         2.60065914076110    2.82025663900176    3.25974293972332
H         1.61872049001476    3.10976587751789    1.80753317876523
H         4.51478043665483    1.24580547799915   -0.03545096486922
H         3.10794796663482    2.25273790855790   -0.48466821869693
