38
 energy: -53.126851443424 gnorm: 0.159790584733 xtb: 6.4.1 (79825abcba525fcdf90b791dcacef51065a7a4e7)
C         1.14035361270789    1.17870241338628   -0.00444340237596
C         2.51262939071530    0.33231052295394    0.33231889759371
C         3.27413638358022   -0.47283366885719    1.64407931257210
C         2.37833448901695   -1.34196410376996    2.59285405424160
C         0.95213567406964   -1.19513591419084    2.12356235896054
C        -0.08576576273264   -2.05242101116790    2.83539940338639
C         1.06500770094383   -1.60782276630175    0.47861890079137
C         2.16892751533816   -0.93693894443860   -0.44500424628207
C         3.41163992563630   -1.72589115367093   -0.82454275972223
N         4.42470264562018   -0.99088723835604   -1.38425613354232
N         3.62386953521273   -3.00048778964088   -0.67862102306690
C         0.72946089796179    0.41802577208942    2.33153857537532
N        -0.45639210031338    0.95127148070046    2.33778632702319
O         1.71434931899450    1.12583776337514    2.86362413056514
C         2.28907844413632    2.34039473927287    2.29054189694458
O         3.39341485418980    2.24095160784465    1.35780531717922
C         3.50412289858771    1.45518422461795    0.13379203762834
H         1.28475274027572    1.20269481522877   -1.08923454353649
H         0.99564732707113    2.22322856280137    0.31299862774486
H         0.23481249846343    0.58295019214375    0.03557709627240
H         3.79071624540013    0.24343620916466    2.28816621614337
H         4.10387499333554   -1.05228373780264    1.20813128558993
H         2.57214341892172   -0.95798478993031    3.59879895207315
H         2.63251108780818   -2.40928860376035    2.56700076525731
H        -0.81741920918476   -2.49873276949066    2.16385372585717
H        -0.67970222683085   -1.45395928196179    3.54786596002939
H         0.44046789350922   -2.83303008456546    3.39570583666618
H         0.04469662563871   -1.61432445558697    0.07994302408032
H         1.21971871854051   -2.69435259932671    0.59533490126020
H         1.65097467264347   -0.70831597592480   -1.39235540832287
H         4.30903886691530   -0.00513858179878   -1.52081047288168
H         5.06434567945623   -1.37299522485810   -2.07188594146515
H         2.82181405459436   -3.50658375508190   -0.30888050291415
H        -1.13980902071225    0.32114233874598    1.91867143112141
H         2.85637024780028    2.87644067214155    3.05857275195118
H         1.51061853772118    3.01536945552300    1.92198518095820
H         4.58318931178390    1.28805952294621    0.15324457055800
H         3.17165975066945    2.04598033116799   -0.72679094426699
