38
 energy: -53.125799134842 gnorm: 0.155007897668 xtb: 6.4.1 (79825abcba525fcdf90b791dcacef51065a7a4e7)
C         1.11459837997227    1.03232306026967    0.01523579168776
C         2.57423023606735    0.33361250848811    0.32216791591051
C         3.35538233939002   -0.31306195198018    1.70798140060132
C         2.41533636452753   -1.29604600255447    2.48777509375249
C         1.05897225187588   -1.07549335710966    1.86530484016051
C         0.07124330476976   -1.97916281104278    2.59101979606318
C         1.10364961953899   -1.61454421762423    0.25399554968255
C         2.33080021306170   -0.93610774383092   -0.49140985334743
C         3.50887908210901   -1.88069314408444   -0.66667498988156
N         4.53707469566134   -1.29870034689137   -1.36230714472399
N         3.52370976470633   -3.16042938695900   -0.43648729004983
C         0.67640207880495    0.42555941330436    2.40900457851570
N        -0.55455759509319    0.79718901477953    2.60205134863424
O         1.63408344554032    1.25442496391379    2.79623361417637
C         2.14573911801361    2.49836827931073    2.22641000645205
O         3.29711428559477    2.36917663590951    1.35630075878495
C         3.38015964243841    1.59605584909942    0.12208729707123
H         1.17324304146838    1.39717197942678   -1.01512561613935
H         0.88283942463815    1.89751426057959    0.65591996886159
H         0.26498169249236    0.36276137515174    0.09502112037150
H         3.54245231994833    0.53944225134684    2.36599860997303
H         4.25116913062353   -0.91262271494580    1.47913178588627
H         2.30563762273641   -1.00612379262717    3.53698358687734
H         2.77915538825490   -2.33046892436559    2.44238054332835
H         0.25604028452157   -3.05048122886985    2.53092420549810
H        -0.92303681722240   -1.94294020862820    2.11287700049886
H        -0.00019516965887   -1.78752891587296    3.66730446298055
H         0.12596407358088   -1.36673655549020   -0.17348751826166
H         1.11449506651875   -2.70828185422505    0.40139148008618
H         1.99548105891667   -0.63647363380427   -1.49927805787529
H         4.59353254087191   -0.31767263785024   -1.55755766644039
H         5.32064802213988   -1.94205956488456   -1.37159439318304
H         2.64616430155347   -3.49622393362856   -0.04496441289915
H        -1.31188289001985    0.18630376693259    2.29700001098553
H         2.54145978148583    3.05105327955628    3.08488602104523
H         1.34067013507189    3.11990928599211    1.82270782689987
H         4.45583345879944    1.42310027756987    0.04655181133831
H         3.11593409989770    2.16426043827393   -0.77652455093993
