38
 energy: -53.124566366188 gnorm: 0.141687811497 xtb: 6.4.1 (79825abcba525fcdf90b791dcacef51065a7a4e7)
C         1.10974904928765    1.20295845443557   -0.01719517795419
C         2.49909954855605    0.40628518109944    0.36744203795151
C         3.24991473358661   -0.32659212677158    1.72686576729960
C         2.36585546414377   -1.36261265119071    2.50347567492145
C         0.95596356323376   -1.12448396254860    2.02250183547220
C        -0.11017984080252   -2.04507207441369    2.60107325844494
C         1.18680267539342   -1.65850763039272    0.42549790535112
C         2.30660566094595   -0.89767981535974   -0.40455398067958
C         3.51276255332179   -1.77221561911288   -0.70655052937474
N         4.28315084325084   -1.47019410264952   -1.79975261235211
N         3.90956551078358   -2.80437173858416   -0.02234856959575
C         0.64092931116712    0.44793945929518    2.37373787787500
N        -0.58492911637957    0.88096494413719    2.35380378347012
O         1.66997431849837    1.17013084996589    2.79041999543090
C         2.29409482446288    2.41663565280009    2.35385979214282
O         3.40209774909794    2.30688793518361    1.42664335608423
C         3.31797336796328    1.65295557141385    0.12541674008996
H         1.21806286662621    1.47325205649570   -1.07237670072094
H         0.87983361694394    2.17956675001079    0.43680852878661
H         0.25193171343832    0.54286453254935    0.05317877818022
H         3.71592367510320    0.38609369860082    2.41218307403582
H         4.01752099143925   -0.86064877233129    1.14390490146695
H         2.38319844084716   -1.22183300210008    3.58828324703966
H         2.67561485257568   -2.40363544145253    2.34607048000320
H         0.26174107496749   -3.06831403375069    2.61270433630035
H        -1.01407577000540   -2.06590643023231    1.96777740343345
H        -0.36895911095618   -1.90509182976868    3.65637155809830
H         0.28313223428868   -1.77227437170558   -0.18315329815127
H         1.58033349483414   -2.67773369851741    0.58175707822436
H         1.91027170509027   -0.63647486947434   -1.40090192143874
H         4.12206552173949   -0.64125684176021   -2.33886313089509
H         5.06401235344035   -2.11271540034568   -1.87327929772329
H         3.29244772274183   -3.02592707133238    0.75624827513976
H        -1.24927417124236    0.16978355281900    2.04942673686565
H         2.88118335086262    2.67263813473535    3.24201879674254
H         1.46162430302270    3.06256037017258    2.05856530689323
H         4.35858931252659    1.43625567757961   -0.12528828466982
H         3.04485487518617    2.31256928155979   -0.70554107018890
