38
 energy: -53.127867277942 gnorm: 0.139208297814 xtb: 6.4.1 (79825abcba525fcdf90b791dcacef51065a7a4e7)
C         1.12338527253955    1.09730420595446   -0.02986318785735
C         2.51439903346648    0.33859001110706    0.41998387182208
C         3.27306584356427   -0.44318189313881    1.74743361616264
C         2.33617338362281   -1.41108922847438    2.54956214455636
C         0.93861185640075   -1.11310310573610    2.06596899608334
C        -0.10140841186021   -2.03750796493407    2.68461479124996
C         1.11611630987361   -1.60113291101130    0.44757207212836
C         2.25329266030610   -0.91059647938700   -0.41948801137977
C         3.47830429195906   -1.70888513386388   -0.83531362571934
N         4.14673949890512   -1.09048741712354   -1.86029388812046
N         3.81100740501964   -2.92164074971884   -0.50446078694029
C         0.66016421594515    0.46670680740918    2.41496229317734
N        -0.51582638255032    1.02137363524948    2.40965607078612
O         1.76492426456270    1.09005677410352    2.79582723097779
C         2.26816870268501    2.36139589725095    2.28169948924651
O         3.51148222813694    2.26021473262120    1.54455687935002
C         3.55467171781911    1.43196075060944    0.34454639207133
H         1.23768038342517    1.14799046055474   -1.11732173347636
H         1.00897565197114    2.13401686932586    0.32352261669584
H         0.19061198000552    0.58837014361670    0.18796050406963
H         3.77576580734261    0.18700211907367    2.48561115914518
H         4.13537485937527   -0.98329122142887    1.32436825160725
H         2.23979785223273   -1.33487886202815    3.63668260499374
H         2.54979920916620   -2.45353435628849    2.28099577499218
H         0.17962805174061   -3.07779552469288    2.52871465184376
H        -1.09908280792846   -1.78041910118137    2.28828578501869
H        -0.13827678916403   -1.90053315203395    3.77093624928490
H         0.17430483082256   -1.41905526796850   -0.08144427881426
H         1.28182928022870   -2.69016755842257    0.51574793480535
H         1.84257039165942   -0.58336035242843   -1.39017930290997
H         4.14756147884772   -0.10100912819234   -2.01732143720006
H         4.74228720686441   -1.67029556789774   -2.44092278740502
H         3.31810208519970   -3.26241489145385    0.31837060725053
H        -1.19732481395920    0.30946727512170    2.14787765364596
H         2.42947959363009    2.90310092462583    3.21955400298066
H         1.54122439777532    3.02060805526564    1.79753417176715
H         4.62005704258004    1.22230671894368    0.22753062840603
H         3.29682049013649    2.09270523242969   -0.49038134654211
