38
 energy: -53.127883827253 gnorm: 0.160839344531 xtb: 6.4.1 (79825abcba525fcdf90b791dcacef51065a7a4e7)
C         1.10868922878305    1.08994078901627   -0.06534696501764
C         2.51805611052014    0.31680675152773    0.29364842017105
C         3.28195028503629   -0.38361997654232    1.66285753672977
C         2.32876120144344   -1.27558186268610    2.53110684646453
C         0.95615469095809   -1.06937399938214    1.94011953305731
C        -0.02568701249803   -2.00794364332722    2.62856929561316
C         1.08323191655447   -1.67412632351899    0.35676373667740
C         2.27073183440698   -0.99467383206560   -0.44945715766404
C         3.50825195856912   -1.83314403726902   -0.72575584714310
N         4.55767905799630   -1.11573757404936   -1.23940619229915
N         3.72811984621051   -3.09039963726997   -0.47696343256858
C         0.55373723666307    0.46379503284570    2.36741535710347
N        -0.66641822971690    0.82843090095184    2.62990094085941
O         1.50016331010781    1.30317523116377    2.75963547287009
C         2.20272422774662    2.45602682521142    2.20175842334512
O         3.38001125556340    2.33172939675454    1.36630000808816
C         3.45122179498326    1.49893288878323    0.17077744683442
H         1.15790060399757    1.34742562442185   -1.12811616044676
H         1.09433553706455    2.09363303946129    0.38757696446086
H         0.15366541700622    0.62846488786549    0.16158160657998
H         3.68085446256496    0.44704041074485    2.25075550967941
H         4.12317199883429   -0.95388312910877    1.23691715698316
H         2.39219344205694   -1.03887853694735    3.59735027674052
H         2.63014972444291   -2.31134074757048    2.32905676891522
H         0.47978242481294   -2.97069451304970    2.57292772173219
H        -1.00488439613860   -2.02827312761906    2.11936916576175
H        -0.01363178089615   -1.79730023029949    3.70360405074747
H         0.10090709791132   -1.57641044648550   -0.11811414581611
H         1.50158810595714   -2.68482828186346    0.50361356849879
H         1.96863063972302   -0.86606020138061   -1.50312279556343
H         4.38717743258284   -0.25273186960011   -1.71886002352585
H         5.36330846665628   -1.67389496151727   -1.49903300734438
H         2.99372000306291   -3.63056926533675   -0.02418553605695
H        -1.36593391487873    0.10818760460271    2.45183882874598
H         2.79658663550681    2.76658444099621    3.06773650563579
H         1.58139248490095    3.28998321144247    1.86133464538052
H         4.52100823449791    1.28536646539015    0.11939884757291
H         3.23056399779023    2.03343611941964   -0.75970161813375
