38
 energy: -53.122604747677 gnorm: 0.161930429771 xtb: 6.4.1 (79825abcba525fcdf90b791dcacef51065a7a4e7)
C         1.05050585571678    0.98902289333456   -0.01500105121697
C         2.52731083943852    0.35220990363712    0.34059022589406
C         3.25125776391163   -0.35701368216830    1.72686877489385
C         2.42843245976781   -1.35898943051309    2.60835921086593
C         1.05901797472187   -1.10581353346743    2.02832281647735
C        -0.06651765168617   -1.97473548722388    2.57333045195422
C         1.15850348677178   -1.61939330761165    0.41115616927639
C         2.27767191859170   -0.91793221002259   -0.47044360596445
C         3.44967469745056   -1.83305784497212   -0.78632931983405
N         4.64442961527523   -1.18245255403431   -0.95685599568827
N         3.50207951033795   -3.13143183070191   -0.83541984285565
C         0.81177519659419    0.46747326343782    2.42678038562281
N        -0.36338873453247    1.02118321596355    2.48184736592797
O         1.81560270433357    1.20934365698056    2.86958588644135
C         2.03361811059884    2.47022616026065    2.16493698008270
O         3.15731202334325    2.40340279455371    1.25263658618636
C         3.45614421251046    1.52482797100572    0.12715857047851
H         1.10497333529531    1.10276396885212   -1.10233486467812
H         0.87073045192559    1.96558236630452    0.46118865668389
H         0.10962590397443    0.46833634799454    0.12697603390659
H         3.65648817329726    0.46193518828050    2.32674900905105
H         4.13144603717759   -0.88958695196679    1.33200987659165
H         2.35517997620726   -1.13353675043879    3.67640992138006
H         2.73461614536709   -2.38236485055238    2.35654573151176
H         0.37333244695950   -2.95244728436958    2.76332017126198
H        -0.94461925222533   -2.15072041536914    1.92796819378520
H        -0.44859691340693   -1.65116119152329    3.54776916067535
H         0.21916116390375   -1.72383807708144   -0.14269101901027
H         1.38898613660804   -2.68360764604987    0.59124170610547
H         1.90427715277097   -0.71856100820246   -1.48968121892234
H         4.52820531837924   -0.25215107314714   -1.31006512248859
H         5.53771958876795   -1.62535281437292   -1.14085833912254
H         2.65846640976074   -3.65368389693493   -0.60803495862580
H        -1.13506453212432    0.40871990595675    2.21881909418464
H         2.43131923560227    3.08791540236666    2.97692863618340
H         1.04881860598148    2.82790646407828    1.84924806829131
H         4.52901369479013    1.32985615980629    0.18741186309159
H         3.17484746559246    2.02072973767483   -0.80832442205028
