38
 energy: -53.126287152012 gnorm: 0.139661999363 xtb: 6.4.1 (79825abcba525fcdf90b791dcacef51065a7a4e7)
C         1.19405434030582    1.09789839393804   -0.11307438027780
C         2.58372985951934    0.36152841739974    0.37630290487518
C         3.31666389164034   -0.34960191326840    1.75687048717781
C         2.41449706262219   -1.36051068268417    2.54565484115407
C         1.00155781137114   -1.11730426094707    2.07630463426263
C        -0.05464561199183   -2.02630983881034    2.69033423262035
C         1.10996047941499   -1.55542206343487    0.43764932391443
C         2.30937687822351   -0.92900955763585   -0.39350139499807
C         3.47059072188557   -1.83922292576856   -0.75945669318692
N         4.50437128794676   -1.21275288978718   -1.40647984037630
N         3.58154185451133   -3.12317025689844   -0.58596241983189
C         0.67808229648152    0.43749887052714    2.49233306582672
N        -0.48974130340996    0.96929929389985    2.28253858571104
O         1.72244377186249    1.14046588533329    2.90375082171568
C         2.05245895988156    2.39376757754255    2.22979953695246
O         3.22063315238211    2.44573565384901    1.37416307182014
C         3.52303954438000    1.54048019301243    0.27100483718193
H         0.94820850554967    0.68291650936529   -1.09569761487188
H         1.48523911645860    2.11576833403458   -0.41621866323881
H         0.31190870571093    1.00806247920103    0.51164607699653
H         3.62839319181317    0.42925793055949    2.45754689479494
H         4.14499170522526   -0.83248775282485    1.21375582204751
H         2.55220234322721   -1.29564928234333    3.62905569691623
H         2.65874046440185   -2.37193856851044    2.19663545228714
H         0.28604130588001   -3.02121554247862    2.97243283908684
H        -0.89273150420117   -2.23384849380492    2.00253679631658
H        -0.53546672259317   -1.59665877792041    3.57601290952772
H         0.20962000430973   -1.08854879806589    0.02360121443360
H         1.12785839808883   -2.64989315525033    0.29651852591177
H         1.96059235613588   -0.74945660279127   -1.42506717258671
H         4.33440539350666   -0.24589741774893   -1.60654910796829
H         5.19771019741568   -1.82653055812967   -1.81944790035098
H         2.82773981011103   -3.55429471337007   -0.05488016949409
H        -1.19030829722123    0.26147791012793    2.06351005641142
H         2.29703262959077    3.15202121992161    2.98097978542340
H         1.10610086259336    2.56826558454807    1.70885658656887
H         4.55518848710860    1.30293594738806    0.53734051634348
H         3.50309075207258    2.11652822067900   -0.66063112505422
