38
 energy: -53.127324884657 gnorm: 0.155161790341 xtb: 6.4.1 (79825abcba525fcdf90b791dcacef51065a7a4e7)
C         1.10382545673837    1.01848936206327   -0.19492072581763
C         2.52869412385585    0.35519323739157    0.29774186979742
C         3.28532925911686   -0.34190126144631    1.67267023547482
C         2.42426290776869   -1.34313215185277    2.51772864361341
C         1.00285645800164   -1.10928481340693    2.06967127799864
C        -0.05995334759633   -1.95438262417367    2.75897102770946
C         1.09816720563293   -1.64839646574089    0.46058333010168
C         2.27786601202414   -0.99255388488796   -0.37606775389505
C         3.54277319587993   -1.78519304493298   -0.66340414428139
N         4.61770993129704   -1.05010932455738   -1.09232004142437
N         3.69901370407845   -3.07396236206541   -0.73819522668096
C         0.57308181730269    0.44711220181051    2.36640496186748
N        -0.61081601066303    0.96591402094734    2.50735866522630
O         1.63112878587451    1.14581340155873    2.74912066303046
C         2.19503892858871    2.38639623008207    2.22295998246700
O         3.37158129376979    2.31431094588559    1.38034669960479
C         3.46595398856832    1.53159279915959    0.15301575327278
H         1.20234555395389    1.13815650512250   -1.27851295787951
H         1.02806521392088    2.05501240824985    0.16925587974823
H         0.10381595475192    0.59946890770309   -0.16442634939174
H         3.74477569868394    0.47414864172659    2.23633392755879
H         4.07250734381158   -0.95162549951328    1.20058310910402
H         2.53061994875988   -1.08781007940901    3.57623040407707
H         2.75892259850673   -2.36989583592699    2.32224218718686
H         0.36038990589201   -2.95331289785034    2.86353879884125
H        -0.94684543522479   -2.14069074731791    2.12870340596388
H        -0.42965962544128   -1.55683391592198    3.71054234758326
H         0.12672475944771   -1.56958218173992   -0.03952396645118
H         1.08795873720743   -2.73789331643032    0.63664468003043
H         1.89013483018293   -0.98573885562624   -1.40933245009976
H         4.36861603539596   -0.11191204742245   -1.34023882057876
H         5.28608896141272   -1.57067500955272   -1.64933469781329
H         2.93195490861860   -3.68963518307980   -0.47608465628831
H        -1.44053360838589    0.38647013203291    2.38248995491845
H         2.59033539970505    2.81233618966204    3.15105075492759
H         1.35124050100951    2.96472126032936    1.83441253234936
H         4.52242648464877    1.26098985697371    0.09528094825309
H         3.23873470863450    2.24922418759823   -0.64294368937932
