38
 energy: -53.124122987789 gnorm: 0.160248673032 xtb: 6.4.1 (79825abcba525fcdf90b791dcacef51065a7a4e7)
C         1.13122084486058    1.17595711015868   -0.06791452389730
C         2.55872277754397    0.43798441828381    0.29342109573259
C         3.25363098929986   -0.36197313695358    1.64473006644132
C         2.38343212149816   -1.44651468453487    2.36898542452569
C         0.97154877755168   -1.10293643991453    1.96355271783189
C        -0.10023283276426   -1.96780946375243    2.61329725100978
C         1.03040294424776   -1.46752465041585    0.30448637771730
C         2.22283645361768   -0.81354930833113   -0.51540531025432
C         3.37651368747453   -1.77359050798241   -0.75660844897196
N         4.57519432330007   -1.25538214660028   -1.17425750450606
N         3.41057109113726   -3.06850474224883   -0.64272969006775
C         0.69676653132005    0.41354220487665    2.52916388633105
N        -0.47995977728347    0.85129650797873    2.86728175496363
O         1.81448871251423    1.02926078209609    2.88371402399846
C         2.28019110266225    2.31691372539362    2.37483619909119
O         3.33550910653108    2.25462724755671    1.38394282615763
C         3.51085805891881    1.59444270777936    0.09502689339897
H         1.26966465754151    1.30195368345037   -1.14641196679412
H         0.94661270965428    2.18290174611994    0.33795068701360
H         0.19094942617276    0.68034292782513    0.14837994276255
H         3.76532857602394    0.34233293935436    2.30568676454063
H         4.13674152937803   -0.85044970189823    1.20225334441696
H         2.56920870786173   -1.23065169631122    3.42530799965532
H         2.84364783886905   -2.37550291630123    2.00893254433432
H         0.28332054166243   -2.98518764311695    2.55573849488594
H        -1.08116013229176   -1.94605854012366    2.10749680515394
H        -0.26896839145000   -1.66103009653164    3.65138704372354
H         0.08471838292859   -1.21650517422113   -0.18814873723579
H         1.04462226546798   -2.57047674624057    0.26707411948627
H         1.86761871257108   -0.66526080808436   -1.54974022178951
H         4.58765059609324   -0.31836211265289   -1.52860749211681
H         5.15574781374857   -1.97208042180740   -1.59531060833721
H         2.58297467913432   -3.51081510388428   -0.24829351634020
H        -1.22562532062187    0.21511950467183    2.58614045645177
H         2.88225403295100    2.70294687820796    3.20401365952705
H         1.50156606355913    2.94558164897598    1.93218008317093
H         4.58903525435274    1.43521198187481    0.02522075125911
H         3.13061528025495    2.19268184208560   -0.74025761834978
