38
 energy: -53.128567821125 gnorm: 0.150866513468 xtb: 6.4.1 (79825abcba525fcdf90b791dcacef51065a7a4e7)
C         1.08867094003760    1.03984932365816   -0.04459025333446
C         2.50068561847211    0.30048458202753    0.37072075323611
C         3.30415870162807   -0.38953454144270    1.72244930426178
C         2.36212915926926   -1.34274647140675    2.53607675061983
C         0.97200056900309   -1.16344773205067    1.97819616992785
C        -0.13563732032584   -1.96281766745069    2.65127502614471
C         1.12133922180270   -1.72113364595776    0.37957991887664
C         2.21437201853111   -0.94262963698886   -0.46954589126928
C         3.46055120199396   -1.78717247802385   -0.68076635642055
N         4.37690960148559   -1.14830174154742   -1.47571125421405
N         3.91006431042906   -2.93028860897230   -0.25397057479358
C         0.66588531263441    0.40734026888622    2.34432084970654
N        -0.49813841303684    0.98255903620526    2.27497056570255
O         1.75361475680480    1.06685854409443    2.71310036959347
C         2.23161785270011    2.39916579810635    2.35205208483141
O         3.15606244880925    2.51655509335579    1.24251736293399
C         3.38776569153172    1.51308285734628    0.20943836033224
H         1.39754180165485    1.24910298505322   -1.07367249504792
H         1.00977767090281    2.01969964320079    0.45181023600424
H         0.17780685751481    0.47188538362504    0.11120013740651
H         3.88844635568300    0.25154764943201    2.38755590091230
H         4.13199576396684   -0.90834435147280    1.21274212198160
H         2.34958452397023   -0.98640504912085    3.57038356372728
H         2.70995145934084   -2.38313723870685    2.50348197201131
H         0.13449126370648   -3.01613926092469    2.70630889364617
H        -1.06849732940254   -1.72176262212959    2.11258194485889
H        -0.20328264207989   -1.56035524761040    3.66796760847821
H         0.10870432079475   -1.77587753110102   -0.03465804757984
H         1.45178282919707   -2.75296343517072    0.58991185145772
H         1.85198715064602   -0.75697047468757   -1.49532643412755
H         4.31079504808235   -0.28451464105325   -1.97892723785510
H         5.19571886349839   -1.66793832112839   -1.77153840910796
H         3.30181231214249   -3.49194662768275    0.33823205013425
H        -1.28334159892712    0.42550469292785    1.93892723549636
H         2.81916355229012    2.69678725751145    3.22683670986375
H         1.37871827602693    3.07627309657154    2.24475455825416
H         4.43930035437088    1.22906369268834    0.28881947574495
H         3.15167381090832    2.03179756772184   -0.72617401933597
