38
 energy: -53.128219893478 gnorm: 0.146759032883 xtb: 6.4.1 (79825abcba525fcdf90b791dcacef51065a7a4e7)
C         1.19547976356955    1.21173357197577   -0.01086425121883
C         2.52686270315101    0.35176506673291    0.43724572662188
C         3.20511794236731   -0.56653465566705    1.72003991706078
C         2.29325051177996   -1.48967515966278    2.60000109508863
C         0.92404885196454   -1.19950867411539    2.03703883023166
C        -0.23367838062719   -2.00796073411361    2.60709325986991
C         1.09642607632670   -1.57750511558180    0.38892041076866
C         2.21742820285295   -0.84295308901448   -0.46289610635172
C         3.41857324995380   -1.66399849454670   -0.90330987009294
N         4.14227677617605   -1.05754471620698   -1.89742905110502
N         3.79055620933883   -2.83061949877452   -0.46563957786692
C         0.73102067555932    0.39701456197163    2.36716378479594
N        -0.39673043230409    1.04393523861586    2.38472595665250
O         1.82291278686474    0.99579425302058    2.81811008251215
C         2.30144594240427    2.31982410554673    2.42844812414718
O         3.34839392567201    2.35381769799414    1.42735385666949
C         3.62761553810412    1.38499064764423    0.37316952671415
H         1.34848156593934    1.22937789150346   -1.09459747017472
H         0.92588539210770    2.10735122676355    0.57045504903284
H         0.35141432024399    0.53100225770167    0.01531728484600
H         3.81927213150984    0.13228484755098    2.29380918511816
H         3.92193622999030   -1.23509243454249    1.21657067688464
H         2.30013327526797   -1.19560131654310    3.65375645612625
H         2.60984637246053   -2.53635496167109    2.50681214854556
H        -0.02103635350484   -3.07565309245396    2.58974528719476
H        -1.18819444055286   -1.77829392525184    2.10243712830364
H        -0.44165851606244   -1.62778725942327    3.61328811364612
H         0.08779732095546   -1.65967455701700   -0.03052642173052
H         1.47057450388094   -2.61349430300227    0.45852340707911
H         1.88197613454096   -0.52739096276194   -1.46584690661264
H         4.09287948434448   -0.06053136666565   -1.98257545943849
H         5.09552700041678   -1.39813729456057   -1.95483286092261
H         3.21500956261959   -3.15008681400810    0.31077582047761
H        -1.20490163807000    0.56990724395383    1.98231388653833
H         2.79387504812487    2.66910513976798    3.34198682892852
H         1.41236982170086    2.88419074061928    2.13102804115473
H         4.65098643129943    1.03294890611520    0.51970288904286
H         3.57996134534142    2.00051412620714   -0.53183587785978
