38
 energy: -53.130592887370 gnorm: 0.143293424771 xtb: 6.4.1 (79825abcba525fcdf90b791dcacef51065a7a4e7)
C         1.14497533100594    1.09368774668777   -0.14249987804864
C         2.55771595905740    0.38811776878306    0.32575630641716
C         3.24219278582009   -0.39700753616074    1.69101643803907
C         2.28948591074611   -1.29314328249820    2.55548888993705
C         0.91125115409705   -1.11985642631526    1.96703589307688
C        -0.04809354594151   -2.11008558733355    2.61355975585636
C         1.14045316414196   -1.61355896000639    0.35687633097239
C         2.29844874057947   -0.89626406332405   -0.45941904857851
C         3.54135929081436   -1.74496900772585   -0.67320068312995
N         4.41612806382046   -1.29097011906571   -1.62633789709376
N         3.87675804723861   -2.87591539030298   -0.12602689895496
C         0.55558613653783    0.45260907399597    2.27684786145257
N        -0.62964966528141    0.98448769371328    2.33124068571629
O         1.60170309861292    1.13251880000376    2.72123522556536
C         2.20935837373899    2.42062715922732    2.39655479109520
O         3.36897841030823    2.31385824296290    1.53439056927735
C         3.47261104986566    1.58955082321591    0.27243407143732
H         1.26621061276522    1.37917019657499   -1.19226191703584
H         0.89840474179073    2.07493854051366    0.29234959921867
H         0.24653870099902    0.51770161455930    0.05135229141027
H         3.80111061596713    0.27685225431515    2.34543914688047
H         4.02844802909575   -1.00747690752163    1.21835474358918
H         2.22512631061212   -0.96328807074014    3.59663275531322
H         2.59243131730326   -2.34654965546976    2.50058143342374
H         0.09458676982443   -3.14653105682923    2.31205075966640
H        -1.12552803222968   -1.98301884534282    2.40980859601747
H         0.07375334395517   -1.95879818800983    3.69174394896760
H         0.20449019637433   -1.49351823672201   -0.19952549896511
H         1.55115392452630   -2.63327426565705    0.45491104268630
H         1.98244353298753   -0.72527959494553   -1.50293372757480
H         4.01989053510172   -0.90390576692526   -2.46114484231759
H         5.06972705366592   -2.02085341737019   -1.88722720280271
H         3.27265860117060   -3.17691942501577    0.63594069344700
H        -1.34623761405477    0.32702012939785    2.02461904540185
H         2.79113954342074    2.63834598359045    3.29831186294482
H         1.54837008902717    3.25172613217226    2.13236976384538
H         4.53010250658915    1.31678824911522    0.27002472425508
H         3.29931214117765    2.31380451933270   -0.53105763733685
