38
 energy: -53.126447300755 gnorm: 0.161089765674 xtb: 6.4.1 (79825abcba525fcdf90b791dcacef51065a7a4e7)
C         1.17204585084359    1.07755383743546   -0.03155627620688
C         2.58997195397592    0.33525949464071    0.35756271728801
C         3.33795702528342   -0.33247523393034    1.75166247814855
C         2.38518705918828   -1.22532325651398    2.61946088634686
C         0.98471602954568   -1.10708463595562    2.07124849551979
C         0.09108198763039   -2.18030842460186    2.67828888371515
C         1.16245967402503   -1.58551195747409    0.45001314598315
C         2.29449158731278   -0.92797148127307   -0.44884619248144
C         3.41761019923856   -1.90361795143364   -0.76117263121806
N         4.44054926235110   -1.16430282195973   -1.29672351125658
N         3.63334374770813   -3.15923629199347   -0.50076375135581
C         0.61762562883028    0.48124121290859    2.26514137032908
N        -0.59906218738796    0.93971587134431    2.25469606077313
O         1.60910775700675    1.21686945910478    2.74465397414911
C         2.12539298770531    2.46817142973458    2.19549242307957
O         3.35175250287948    2.37528005265118    1.42942525304982
C         3.45561261485279    1.56615084307433    0.22012042826385
H         1.26064385251747    1.32572598805743   -1.09398723419375
H         0.98322205190936    2.11733179304778    0.27820429778201
H         0.25281827941271    0.50861095175031    0.05705369184237
H         3.70799498888646    0.43740044329349    2.43365117627996
H         4.06079543407387   -0.98186375079638    1.23197177403176
H         2.45672059196596   -1.08150163141775    3.70164638366470
H         2.61581848022316   -2.27882071761276    2.41597136053787
H         0.21655522483104   -3.21169646253451    2.35274359903304
H        -0.98234027530477   -2.03603873768387    2.46503676463802
H         0.18744415454837   -2.16530247510639    3.76948311188401
H         0.19422233614884   -1.51017651931956   -0.05680089584676
H         1.29502672074349   -2.67572775963912    0.55937812438842
H         1.84512816108008   -0.69454599612112   -1.42945972660034
H         4.13451442742848   -0.31473296289235   -1.73065825273911
H         5.28872626467622   -1.63918257219245   -1.58494128610985
H         2.91816227292393   -3.56995084798082    0.09586275561047
H        -1.21856223306388    0.21012005975211    1.90300249425854
H         2.49914211030544    3.11810385464751    2.99357516672523
H         1.36263398776291    3.08874541441695    1.71537641002206
H         4.50722846019638    1.27647309824578    0.16641455323769
H         3.17997615804912    2.24737099367074   -0.59236864833845
