38
 energy: -53.125113547754 gnorm: 0.162678854753 xtb: 6.4.1 (79825abcba525fcdf90b791dcacef51065a7a4e7)
C         1.22225357500840    1.08974244118424   -0.02690436660894
C         2.62813053102529    0.34459889245550    0.39877155734035
C         3.38842215987100   -0.35603440728681    1.76987881028032
C         2.41822762366111   -1.31854080169303    2.53820574942329
C         1.01434961597148   -1.12911830629445    2.01947463054857
C        -0.07862761903695   -2.00264576007441    2.62050685004146
C         1.08403979116966   -1.62133106358490    0.39412559963002
C         2.26441972261550   -0.90928544560093   -0.39422590173803
C         3.36039210485425   -1.80760805196204   -0.94439884286768
N         4.48147738484706   -1.13041474354782   -1.34984048713840
N         3.34220009076272   -3.10559666817605   -1.02072550190311
C         0.66846787005423    0.43428444560275    2.38178184591627
N        -0.46289705189042    1.06219151509366    2.50977993691450
O         1.73972911435526    1.04537774241601    2.86456796474964
C         2.18537064578992    2.33988705242507    2.35512241633324
O         3.30208832642540    2.38440572834253    1.43294830421204
C         3.59059122928740    1.50570635482965    0.30487532479561
H         1.47915328204542    1.49414375729008   -1.01110997423073
H         0.75726810430959    1.96571305979274    0.45185258842227
H         0.39995476568805    0.38238991698151   -0.02893950800643
H         3.81588702196925    0.35812379130725    2.47839634291363
H         4.15392893184595   -0.96255443736195    1.25957294678866
H         2.36120679658637   -1.02561841867036    3.59076086595446
H         2.54602273833143   -2.39771694295240    2.38489885377996
H         0.13047094712393   -3.02541494345467    2.31114370266075
H        -1.08714427025316   -1.84872688526666    2.19892801162391
H        -0.09960446835705   -1.87003135650268    3.70779204305628
H         0.11808294849672   -1.58427198212116   -0.12121257875323
H         1.31040415449652   -2.68746696309710    0.56796068923797
H         1.77339369044320   -0.52953513514112   -1.30675042144845
H         4.36714795255493   -0.15077970708676   -1.52582228920695
H         5.16881025561316   -1.66905868059514   -1.86503047243025
H         2.61855730695988   -3.66414067871789   -0.57294890796908
H        -1.29955529491740    0.48289509592523    2.44499287196359
H         2.57401744738279    2.82397744613849    3.25714613542699
H         1.26375824462650    2.83751364006883    2.03822634544200
H         4.65549755346810    1.31218006153317    0.45053069922287
H         3.49820993246696    2.13234229083851   -0.58897474450997
