38
 energy: -53.131135630573 gnorm: 0.155610997235 xtb: 6.4.1 (79825abcba525fcdf90b791dcacef51065a7a4e7)
C         1.21055661488396    1.08611423971660   -0.16543073038652
C         2.60447623215642    0.32923183982963    0.27846795865622
C         3.28170080418043   -0.30350321902283    1.72410923682510
C         2.37714327628477   -1.22569214836610    2.61257169229281
C         0.98015815344787   -1.12864195856761    2.05145660706220
C         0.06984260343044   -2.08021664131249    2.81612671529475
C         1.12501573608990   -1.66686795432912    0.44577338232718
C         2.29034334949368   -1.00120012071519   -0.40316814647074
C         3.47615158939647   -1.90592276249779   -0.69670690310573
N         4.52310629499237   -1.15407374854231   -1.16405561891105
N         3.46057420993535   -3.19998548597008   -0.82355395690018
C         0.65302580479234    0.46087105385007    2.29957279877034
N        -0.53951631615278    0.96171875948078    2.43235923789216
O         1.69882491528633    1.16543400763427    2.70455841236431
C         2.04973771260104    2.48355969927863    2.18178661585783
O         3.23636205315246    2.44892984043595    1.35102261600741
C         3.48933210617112    1.55307545920808    0.22792590354124
H         1.28718147103641    1.16729068605873   -1.25434651091143
H         1.05693505664123    2.08843689154985    0.26409686821122
H         0.33578336563143    0.45599729601359   -0.04605123855929
H         3.71601860339075    0.46802870317965    2.36508644233321
H         4.14213006745002   -0.89112806172157    1.36544816613539
H         2.45755857214025   -1.02854145483432    3.68569430603992
H         2.70271483206485   -2.25282686548396    2.40411743756243
H         0.46795004914510   -3.09361769140828    2.81247527246605
H        -0.94223251796122   -2.13542204348602    2.37888321278825
H        -0.11508875064340   -1.68112260552435    3.81949107553735
H         0.20381537701370   -1.63693762590910   -0.14626842867793
H         1.52897903660823   -2.68720546521097    0.56337542276596
H         1.77873048699839   -0.82361332774344   -1.36479856429344
H         4.39813355254359   -0.16026295196388   -1.18521061405993
H         5.26391571930639   -1.62985226809380   -1.66686839224663
H         2.57816470429855   -3.60458077049258   -0.51730194078856
H        -1.20440682671649    0.20897040695371    2.25609452230602
H         2.32604068406031    3.09307010227417    3.04849900605650
H         1.20022781839281    3.00716742164128    1.73279592181918
H         4.56191322915502    1.41754247685080    0.38250253929551
H         3.31155829939910    2.02592422599933   -0.74417767384830
