38
 energy: -53.129736048006 gnorm: 0.154082059479 xtb: 6.4.1 (79825abcba525fcdf90b791dcacef51065a7a4e7)
C         1.14572424071974    1.04292929620150    0.02273107510676
C         2.58451228940223    0.31110118268562    0.35021463263201
C         3.37708804577163   -0.34720144230632    1.72401476041257
C         2.45916910658733   -1.31073163454327    2.55290356817701
C         1.08109696891614   -1.10452280879886    1.97477609263757
C         0.02877602396236   -1.93100592114097    2.70171174843947
C         1.09103578906566   -1.59684959881661    0.34799857369332
C         2.25261751107886   -0.91723384898968   -0.49500449831313
C         3.45014472347840   -1.82223988656245   -0.73525834020274
N         4.47485389266263   -1.28019443907850   -1.46735381049428
N         3.60162897856136   -3.10353415935923   -0.57318218105843
C         0.62853589973477    0.42727367918023    2.35413976075002
N        -0.58168319239390    0.90250225351740    2.34129856472660
O         1.59295538943733    1.17009108661269    2.87590158986740
C         2.11058115461402    2.40130873245564    2.28424954716600
O         3.22703072006492    2.39534392553790    1.36069654191615
C         3.41328671441469    1.56274638161979    0.17748684597155
H         1.24323445814023    1.29012726958558   -1.03914626287692
H         1.07794395919564    2.02175600237501    0.52277942954212
H         0.21765665902661    0.51883162465551    0.22407469938480
H         3.77032355819143    0.44218235626780    2.36975796163721
H         4.16059532773759   -0.88224718693995    1.16354921785095
H         2.46029616122072   -1.00666734397552    3.60384162289845
H         2.77323623146038   -2.36140830008318    2.59644784502684
H         0.37510853354696   -2.95608767519358    2.82314383887967
H        -0.92785348087731   -2.08004356050483    2.17145394560094
H        -0.17405265888507   -1.50280238393944    3.68949611298838
H         0.05684125178112   -1.60225547462357   -0.01315494382483
H         1.48436586357171   -2.62758249339946    0.37940509823289
H         1.80464392054097   -0.71183797127507   -1.48250135444669
H         4.68240664433850   -0.30013162209424   -1.45620258201832
H         5.22579294067169   -1.92817373489328   -1.67758670325843
H         2.85779015359695   -3.61326125078067   -0.10093619588643
H        -1.30795598960842    0.28612897919399    1.97744348141669
H         2.71115993821177    2.79296531841685    3.11186472147763
H         1.28975182024799    3.07808418987966    2.02804859467795
H         4.49784557123004    1.50280384490137    0.06420680442368
H         3.01507525282422    2.10928609284396   -0.68442778331878
