38
 energy: -53.127265208471 gnorm: 0.146339023246 xtb: 6.4.1 (79825abcba525fcdf90b791dcacef51065a7a4e7)
C         1.16560340782989    1.14899369868496   -0.11276233509758
C         2.51941738616529    0.33682004403546    0.35680188634923
C         3.25716257235233   -0.35166207799560    1.74625856982711
C         2.39785290198725   -1.33564832044636    2.61308048644822
C         1.00333177819033   -1.12406766742056    2.07793494769675
C        -0.05474718356639   -1.99907643705049    2.73650742602439
C         1.11053062220843   -1.63568931571328    0.46064053001775
C         2.29546944820286   -0.98604034569060   -0.37343380886249
C         3.51467080147704   -1.79966295603069   -0.77641709849633
N         4.29158833430451   -1.10341839154791   -1.66605105076257
N         3.88336007155781   -2.98610054749389   -0.39253532556730
C         0.64513780853246    0.45397405979070    2.35472038935515
N        -0.55998424196188    0.93972490783567    2.30609626405973
O         1.63002368353644    1.18913387850852    2.84833756231417
C         2.13532579948632    2.40434123499575    2.21443983447286
O         3.35970176359191    2.19407416192106    1.46869414226862
C         3.50152267141564    1.47542086370657    0.20721904047000
H         1.20959205515278    1.04643671455946   -1.20168181065464
H         1.02280505053808    2.22226852236795    0.08831976807623
H         0.18658635634533    0.69548205608806   -0.00149753004323
H         3.67820689019866    0.45071619808875    2.35753266476762
H         4.03908880435519   -0.93917891121589    1.23862230724475
H         2.54289489214261   -1.21002726948726    3.69016419869436
H         2.60709118368084   -2.39324551900705    2.40774360133345
H         0.26899741662746   -3.02850011034625    2.59172864048685
H        -1.07510771928247   -1.90493761266949    2.32598602106769
H        -0.06327235546070   -1.79837737846970    3.81347673946039
H         0.23766630767865   -1.29904535221548   -0.10927014021341
H         1.10457253307824   -2.73889650141904    0.42896093770825
H         1.88707746877145   -0.86023328433901   -1.39098303371797
H         4.13119338700265   -0.11551127505101   -1.71120204472809
H         5.20687305159672   -1.51095424934127   -1.51063899150973
H         3.15058333426994   -3.52840227763167    0.06032365986061
H        -1.23881479383149    0.30407644055355    1.88786328899703
H         2.60884142232938    2.88650637199129    3.07602927868725
H         1.24567661594831    2.91135607516945    1.82858359955247
H         4.52545671818781    1.09682382470752    0.17694116366762
H         3.31271206944845    2.13557973582463   -0.64642940452158
