38
 energy: -53.122437546769 gnorm: 0.161660801566 xtb: 6.4.1 (79825abcba525fcdf90b791dcacef51065a7a4e7)
C         1.14750936480515    1.06910385939335   -0.09235524980498
C         2.56355681038301    0.32304834087066    0.29641164150484
C         3.21282582914030   -0.43108231807551    1.69591231386574
C         2.36312288330179   -1.30760720475955    2.67964565047787
C         0.96744764405037   -1.17365097218143    2.12288481749048
C        -0.11142596958641   -1.99328881378641    2.81794930739106
C         1.20500785742320   -1.67813986598004    0.51728661532219
C         2.26811322722137   -0.98413029023214   -0.43663238332358
C         3.51550420159552   -1.78449673344724   -0.77465386806649
N         4.58594699369252   -1.02305124245843   -1.16728460630599
N         3.69202278689386   -3.06694161323327   -0.65174143057728
C         0.63672657257956    0.41048971980641    2.39901993698078
N        -0.55864251657311    0.91702068638221    2.32721152535498
O         1.72979722449482    1.10897927074257    2.66627811463334
C         2.19516154111164    2.40952706015137    2.19099194206784
O         3.36648662833468    2.39345989757030    1.33824066177883
C         3.38412705962938    1.58055700937560    0.12713668441217
H         1.24298040608778    1.14076731639367   -1.18044908301410
H         0.88311689021983    2.02865119522470    0.37892997528283
H         0.28525333611155    0.42488754023191    0.04190918036525
H         3.82745217928293    0.35078440088246    2.14941436733291
H         4.00493917598520   -1.00160452302401    1.18469798212330
H         2.37450371847893   -0.99612029429965    3.72834652712445
H         2.73837180152943   -2.31269748598891    2.44848011995500
H         0.07336247776158   -3.06560251171203    2.85643450697956
H        -1.03557200102321   -1.70244296100209    2.28890453585024
H        -0.24117753894790   -1.61799335972905    3.83899462480741
H         0.20358150696252   -1.50569901174693    0.10810590458372
H         1.29738813369054   -2.77743609213756    0.55073620894947
H         1.78212443064070   -0.89375843441961   -1.42337735406765
H         4.39844789224734   -0.11253906602289   -1.54083149858189
H         5.20683787636422   -1.61107584883148   -1.71199192630976
H         2.92867343575471   -3.64338554115633   -0.30368348231530
H        -1.27051724718807    0.20125046077177    2.18338501455201
H         2.46426754829403    2.97693657221399    3.08802316941413
H         1.40738930661003    3.00793560730099    1.72328812916984
H         4.45610759910249    1.41763017865192   -0.00327020739888
H         3.20071464771620    2.16021812299459   -0.78419624588397
