38
 energy: -53.133607890206 gnorm: 0.145725430660 xtb: 6.4.1 (79825abcba525fcdf90b791dcacef51065a7a4e7)
C         1.21248064014451    1.29321881614558   -0.04806544486939
C         2.54632332826171    0.38862456068444    0.29179014485679
C         3.27576952242313   -0.36998834757724    1.64872794075074
C         2.38795847375766   -1.38293286019958    2.45107277634499
C         1.00543782991064   -1.11421398934996    1.91045911018452
C         0.01059221124596   -2.06630687503807    2.56060562625497
C         0.99435846253330   -1.42569309556251    0.23960676435377
C         2.26011650723220   -0.86247942080700   -0.53657024812482
C         3.42879754485359   -1.80346722818961   -0.78061084203653
N         4.31727778986869   -1.37672488154684   -1.73365844760920
N         3.56861112941912   -3.03164928486969   -0.37693751281932
C         0.68486543036538    0.39197052357517    2.47946733937262
N        -0.49239608106332    0.83535928399221    2.80825161865331
O         1.74150646984716    1.07481574443662    2.89341200797076
C         2.17180997742082    2.34484378874292    2.31396992029230
O         3.37923527742748    2.33578095976431    1.51304084443826
C         3.53990608026785    1.52695135101149    0.30976418827471
H         0.82371371019289    0.96606430367848   -1.01761624597429
H         1.56837062924473    2.32044790614835   -0.22381230105012
H         0.43876421087707    1.14813738441294    0.69815257103945
H         3.71223597403307    0.30072374565715    2.39330000645653
H         4.03086105588103   -0.96725582868759    1.11264252664450
H         2.44386285763485   -1.33544968759396    3.54265291692316
H         2.61118904284259   -2.42550344867085    2.19093739579907
H         0.18948477204020   -3.12918642353121    2.40643339879711
H        -0.99308777556545   -1.80587622081364    2.18201886938853
H         0.01173201193047   -1.94755219043949    3.64969318962447
H         0.08459915516846   -0.96006093994209   -0.15478407939203
H         0.96971443498873   -2.52842533535765    0.20114270919645
H         1.93237930490664   -0.52683988614885   -1.53554586109715
H         4.41209952275064   -0.38308309998584   -1.81974252742481
H         5.10311577550526   -1.99023761375765   -1.91817206768104
H         2.83311529101498   -3.35015643769315    0.25054415355603
H        -1.20673765881769    0.19373606023992    2.46501049645091
H         2.39498818549885    2.92875093149526    3.21301417130910
H         1.34836186096224    2.92044512522266    1.88033291691578
H         4.52160455806307    1.05792000292362    0.40448005173203
H         3.52834202229596    2.30840286415938   -0.45794320658921
