38
 energy: -53.124405820084 gnorm: 0.152937987220 xtb: 6.4.1 (79825abcba525fcdf90b791dcacef51065a7a4e7)
C         1.17476869136823    1.11787266822508   -0.08382819392987
C         2.57427482209887    0.34873584836748    0.31958233573922
C         3.29753328461480   -0.32397161175573    1.72429844659433
C         2.40494706664140   -1.25515162295969    2.61548636537075
C         1.04064362392169   -1.11969336472137    1.98607118845129
C         0.01393297947059   -2.06424406483559    2.59646317659454
C         1.17158942441813   -1.60694719732136    0.36301036441153
C         2.35299899529085   -0.94314989295454   -0.46490774749470
C         3.46730816520845   -1.93242000704621   -0.76572157062179
N         4.28015278661965   -1.38909319129870   -1.72691120551766
N         3.77329894825307   -3.04648022544935   -0.16892124325238
C         0.61409524419107    0.41942833748046    2.36592598073981
N        -0.58949394946414    0.90632317513247    2.43623828692588
O         1.62416063030808    1.19480344640259    2.73017784025862
C         2.08518751707093    2.50971247894727    2.29159613493999
O         3.34233754626203    2.30572971165223    1.60064735811639
C         3.41448550623838    1.60466122658441    0.32346577347330
H         1.37366916916900    1.48859464207352   -1.09437377933291
H         0.90464420984192    2.03406879992451    0.46422440455562
H         0.32649894046733    0.44462749574734   -0.02294771503314
H         3.70511110661915    0.52962442715947    2.27202042179623
H         4.19417717573232   -0.78474115856273    1.27932609540704
H         2.40212967575749   -1.01293031326843    3.68237345099336
H         2.73368449566397   -2.29528841149805    2.49505839492792
H         0.32856165989627   -3.10449856704358    2.53040316572625
H        -0.95871694842945   -1.86522073280516    2.11389981083153
H        -0.10866730608433   -1.80872475176756    3.65471397240700
H         0.24372156338731   -1.51964268868637   -0.21271403757851
H         1.49171595810140   -2.66228365614661    0.31954571659282
H         2.01737784007162   -0.62481629147083   -1.46692571457473
H         3.94335393588020   -0.99171579435673   -2.58270519783460
H         5.08886236453652   -1.95134713691141   -1.96741860809996
H         3.10693854195871   -3.14699827799159    0.59396414244707
H        -1.28425171771058    0.20005078988750    2.19484715394446
H         2.34081985932170    3.07460529719640    3.19413967228879
H         1.35762533142574    3.17392946608299    1.81526242398959
H         4.49088566551378    1.42016600183176    0.32766186676555
H         3.15047487228378    2.18208804859844   -0.56931163360405
