38
 energy: -53.121634483138 gnorm: 0.156093712079 xtb: 6.4.1 (79825abcba525fcdf90b791dcacef51065a7a4e7)
C         1.19133558222752    1.10711377402148   -0.15322270202003
C         2.51262168353496    0.29922113471847    0.40752806092824
C         3.32461170397003   -0.41026458404039    1.74400390879039
C         2.37090607888035   -1.34564403628186    2.56469454931277
C         0.98847797625378   -1.11492072128571    2.00657667471683
C         0.00869880695712   -2.04553046644141    2.70863607497826
C         1.11234846798429   -1.55062694667344    0.36837470670291
C         2.34835333420653   -0.96293950502446   -0.43705638087619
C         3.52851979016629   -1.88150970732847   -0.70957267405593
N         4.25229062396595   -1.22369265024732   -1.67042563326074
N         3.76790884488656   -3.09958731778697   -0.32238931289350
C         0.64222007357161    0.46119229539425    2.30840771905020
N        -0.56776036110525    0.93519806610586    2.26478200034729
O         1.64437504854029    1.17740391453968    2.79507429282987
C         2.12614201465217    2.46377480758394    2.29804716437431
O         3.31560667398136    2.39326178663257    1.47364004407108
C         3.42974217798697    1.49750456745653    0.32800169165130
H         1.21027198307028    1.23164537849687   -1.24057354016130
H         1.13801897032259    2.13027006290385    0.25057525033110
H         0.23283644076559    0.69129894146742    0.13816102808956
H         3.85581723677520    0.42138370741786    2.21403266670970
H         4.08546889360368   -1.06568597165921    1.29035385035768
H         2.38777353602333   -1.10603302736003    3.63204135554788
H         2.65295070718665   -2.39916733287887    2.44223959376859
H         0.24278275107032   -3.05635769701395    2.37860944383949
H        -1.00783755970259   -1.72875194644586    2.41737888504608
H         0.23137920088320   -2.07197414539499    3.78098390144885
H         0.23409770680990   -1.45603460202452   -0.27950437305679
H         1.12054528250635   -2.63534658858291    0.57189697460453
H         2.02163811746166   -0.73268447524774   -1.46577287750996
H         4.27558333786029   -0.23830788024851   -1.49098225530281
H         5.10209226654653   -1.65070669931253   -2.02182377753786
H         3.04584052342783   -3.48785400802226    0.28093521676272
H        -1.30645381156822    0.26588637225036    2.04999710946246
H         2.39067734865762    3.09378149821106    3.15370436777027
H         1.32484935547191    3.07653164778224    1.87391997911598
H         4.51364539782706    1.36393672164323    0.33061519876827
H         3.24647570171954    2.07189563430270   -0.58669123433203
