38
 energy: -53.120906143306 gnorm: 0.173049497530 xtb: 6.4.1 (79825abcba525fcdf90b791dcacef51065a7a4e7)
C         1.15615606378201    1.21200119830918   -0.08689078635779
C         2.56111894792959    0.40530558208335    0.21017885028931
C         3.28095548444314   -0.38136578958689    1.55622824939730
C         2.42663983389137   -1.43316368149304    2.34482715415624
C         0.99028291979618   -1.11285052557927    2.01299198293137
C         0.05361702578069   -2.06212628653239    2.74812576233548
C         0.93573351335618   -1.47283749738976    0.35277414103397
C         2.17342174445883   -0.90818138814273   -0.46642981003897
C         3.39399899077087   -1.77852617610999   -0.71846223632389
N         4.48923887586929   -1.14866891290389   -1.25094258893862
N         3.51586208434260   -3.07293935500968   -0.74244259408665
C         0.66084548447091    0.43203850745431    2.46011350170112
N        -0.52589654584442    0.84159320940846    2.79855944262075
O         1.71855852733919    1.11233610642760    2.87551253783064
C         2.25790654781092    2.31948367056515    2.25439746159720
O         3.48720620408809    2.26118493410016    1.48963019032304
C         3.52386212662686    1.56996094045357    0.20558935227331
H         1.01877575032706    1.05622613262286   -1.16162765509251
H         1.31120911289225    2.30098540902949   -0.03382310201592
H         0.20833451992263    1.01753621034014    0.40335888544537
H         3.53319692226397    0.42053590737535    2.25485058217699
H         4.13382572645202   -0.96374651108542    1.17187908788346
H         2.37770382318632   -1.16908787363832    3.40539134526833
H         2.80209808759565   -2.45912297793340    2.24045119959092
H         0.55099407723161   -3.03057535109916    2.73373687677740
H        -0.92915755219984   -2.08664669623911    2.24605161842041
H        -0.22492240109173   -1.72785216263390    3.75355715545398
H        -0.00881728846243   -1.11259748445117   -0.06920967856499
H         0.91369973697595   -2.57529522931866    0.39974928864583
H         1.77795581791274   -0.88006275069686   -1.49639770921091
H         4.32400403411987   -0.30467865082847   -1.76485260173845
H         5.13076063202409   -1.82206988329295   -1.65463239385942
H         2.75432315850369   -3.54201626867819   -0.25648016051172
H        -1.27270624313005    0.21422435861351    2.50113329011830
H         2.65291556087078    2.87401283220480    3.11201154612688
H         1.42208811629417    2.86578959238380    1.80675682752314
H         4.59439775555529    1.35409689847048    0.21262961934473
H         3.35972693433198    2.23053707754370   -0.65282409128679
