38
 energy: -53.122491785844 gnorm: 0.140987407945 xtb: 6.4.1 (79825abcba525fcdf90b791dcacef51065a7a4e7)
C         1.13582649763282    1.18393319101391   -0.06215935674427
C         2.49004245425779    0.33941203098574    0.34504090505685
C         3.23712210014153   -0.49393530131265    1.64745009669647
C         2.30853306158623   -1.40972255719266    2.51755259721527
C         0.90335582468368   -1.17019552328288    2.02364977184529
C        -0.12687649559656   -1.99872567874313    2.77932712295289
C         1.01167572143751   -1.53692477239886    0.36755014689292
C         2.22096135272054   -0.92876017603071   -0.46285209621299
C         3.49367379231269   -1.69818715687216   -0.77751762837706
N         4.40692243603750   -0.93995882939558   -1.46371922411836
N         3.78336453878401   -2.94827530610478   -0.56706561746945
C         0.60505913918269    0.40318336457321    2.38507298091417
N        -0.48229761924072    1.11570727510793    2.36053151931577
O         1.74513101039790    0.97969767099559    2.73433711298145
C         2.37647279580821    2.26791760502988    2.45905105798583
O         3.49146431791087    2.16413779406145    1.53955715915195
C         3.53301785941059    1.43082801569868    0.27922972914853
H         1.39661421855150    1.39121495351970   -1.10485902578945
H         0.92380890338726    2.18606246349215    0.34222869174839
H         0.18982463982802    0.69694019069289   -0.27298003688687
H         3.74051106962829    0.23949441875376    2.28260805033344
H         4.09782884243293   -1.01064927964363    1.19306061813665
H         2.48251418925108   -1.28954477816550    3.59096538596843
H         2.56546864727368   -2.46704953605515    2.37437616751636
H         0.15936218650159   -3.04274257514379    2.89586332612991
H        -1.03643517452828   -2.03734250230043    2.15503767482048
H        -0.38251267698702   -1.69702666345084    3.80101373019115
H         0.11684907272878   -1.02623094326260   -0.00460106402906
H         0.90461496025496   -2.62242816190363    0.19924811855627
H         1.73815378375805   -0.76778352949017   -1.44213817248409
H         4.02985025249560   -0.17940669356651   -1.99579312760392
H         5.15644227356073   -1.44467316009155   -1.92357566350353
H         3.08986224860814   -3.42400911367091    0.00640285905534
H        -1.33744609227079    0.58316308253565    2.20274533812000
H         2.91288586727000    2.53624047465855    3.37518449965573
H         1.57305000606168    2.92005831315430    2.10317317696139
H         4.53572473397725    1.03658306693768    0.10078296936249
H         3.32661527985806    2.07462654451539   -0.58280059726275
