38
 energy: -53.126782259238 gnorm: 0.138859172505 xtb: 6.4.1 (79825abcba525fcdf90b791dcacef51065a7a4e7)
C         1.20742372899423    1.08916386293156   -0.05698888829070
C         2.56811584865903    0.29808429769237    0.42843773370377
C         3.20794188316425   -0.48058481680307    1.81881989318041
C         2.25184209916488   -1.38315663596063    2.67278687154793
C         0.91004902569043   -1.07826913237341    2.05434425798019
C        -0.08044457926565   -2.08493605501582    2.62393469173408
C         1.19160820313836   -1.60222708413802    0.46215016380530
C         2.35378392763230   -0.96094351273257   -0.40957616699746
C         3.55294433473530   -1.82009232128730   -0.77660054570922
N         4.20735999310559   -1.18617498257458   -1.80114672941330
N         4.06974656730073   -2.92692488097179   -0.33076615688870
C         0.64690254464609    0.50181016656749    2.41383295093100
N        -0.53080397296793    1.05245173412798    2.43477498959541
O         1.71003981300723    1.20577672270823    2.77200650069338
C         2.11831335126667    2.48717170524366    2.20172140766758
O         3.28303427171124    2.45048516754479    1.34060315011815
C         3.50019460584760    1.47757357915084    0.27562446849962
H         1.46618701254880    1.33188104724546   -1.09252184112241
H         1.01467649776450    2.10822900811052    0.31327990061815
H         0.35413350171115    0.42196630149093    0.00019739562711
H         3.70824331888536    0.34119771769708    2.33758494853894
H         4.01833692061181   -1.13020580020142    1.45067359056927
H         2.26492282280497   -1.18777895031543    3.74916209262323
H         2.45366879171931   -2.45330841120140    2.53678355779497
H         0.16118151524693   -3.11211845101135    2.35561079886948
H        -1.14825607568260   -1.88234993888833    2.43089833061543
H        -0.06305913395889   -2.01988256186052    3.71740690477526
H         0.22324792413650   -1.65901921213303   -0.04684144471479
H         1.43438459423565   -2.67104446225263    0.59174279763216
H         1.87475038737498   -0.76820759088626   -1.38497228641055
H         3.96098525239324   -0.36532979089493   -2.32002848456252
H         4.97862547819793   -1.69747844715000   -2.21551710721584
H         3.49053048264556   -3.28812009277923    0.42433709872854
H        -1.27131349494254    0.41421141491116    2.14482041003108
H         2.38364301679117    3.09622386378539    3.07217661354533
H         1.21542296548723    2.85321641162357    1.70349959059587
H         4.54474409155603    1.16182527793537    0.31935989029652
H         3.23834333424557    1.95640700767263   -0.67428464357865
