38
 energy: -53.126664702019 gnorm: 0.145555489730 xtb: 6.4.1 (79825abcba525fcdf90b791dcacef51065a7a4e7)
C         1.19827427926404    1.19767659378542   -0.12484269597037
C         2.56247774192919    0.41412512784298    0.36293279734916
C         3.28806047807215   -0.31224079890217    1.73944568521407
C         2.34591220736949   -1.21664071856765    2.60687851049391
C         0.94788416539957   -1.14834190073044    2.04412707410021
C         0.06784337599697   -2.11540954237104    2.82463815625307
C         1.10327747137987   -1.53015447187774    0.39519964856528
C         2.33513601108841   -0.89915557377963   -0.38336876022948
C         3.47635607537223   -1.82717239905194   -0.76707539270574
N         4.34550641375046   -1.36053837483767   -1.71924990281788
N         3.88313496384724   -2.94984032143374   -0.25221731460400
C         0.50824886696076    0.40633954047637    2.33535768828858
N        -0.72603289252441    0.80605112006345    2.24923819219645
O         1.45534447320411    1.19186509483349    2.82533482143560
C         2.17062298184258    2.34709739417495    2.28895766596550
O         3.36828816987174    2.29988363364540    1.47482357091222
C         3.54471908277087    1.55502608227178    0.23306895624754
H         1.40031024550483    1.33446137751759   -1.19192748926150
H         1.08130907731147    2.26359045068789    0.12593814813866
H         0.31423054958965    0.60677038693655    0.08922178949151
H         3.76327596901983    0.50029172482913    2.29505920043897
H         4.03541277928664   -0.94670824485724    1.23626098834188
H         2.35963001216183   -0.99498354952559    3.67814275618958
H         2.72231173534218   -2.24704180184608    2.57443253502697
H         0.32914451528879   -3.14280401072679    2.57630997452797
H        -0.99614553935720   -1.96780632707760    2.57034216495679
H         0.20793862857373   -1.84428028510790    3.87681587248906
H         0.17454770919808   -1.18965230071178   -0.07547937752540
H         1.28569985185322   -2.60763472123204    0.24072116499372
H         2.05026860804103   -0.67665566017795   -1.42613537757518
H         4.13265753592461   -0.67053785212047   -2.41374270457580
H         4.81983755271369   -2.15743442241690   -2.12906834371031
H         3.26912110911696   -3.25100308215731    0.50172045287830
H        -1.34774800207083    0.03837979639877    1.99639479700118
H         2.50296409886904    2.86357014182670    3.19551263582238
H         1.43235528693638    3.01035519517803    1.82800793963022
H         4.60055562120846    1.28719768552922    0.31162184680060
H         3.33606442141844    2.17007620764429   -0.64917331655515
