38
 energy: -53.130910257702 gnorm: 0.148087287879 xtb: 6.4.1 (79825abcba525fcdf90b791dcacef51065a7a4e7)
C         1.12297717921241    1.18933035463424   -0.00582713504337
C         2.48771636370182    0.34697792179583    0.36948375673149
C         3.28748576439463   -0.43546357855355    1.67218084530724
C         2.33666452691564   -1.35290431216748    2.51613804833846
C         0.93495364640077   -1.08050449894502    2.02947467065851
C        -0.07372579299404   -2.03986227936730    2.64679758682972
C         1.08668204016847   -1.57884293141598    0.41159740754695
C         2.22807616404676   -0.90643364841794   -0.46412461204990
C         3.42747446886536   -1.77191434457464   -0.81514619135073
N         4.44547615816156   -1.03938139485534   -1.36910825917687
N         3.63430095267202   -3.04700136575349   -0.66579065918783
C         0.58837471111213    0.47137543436227    2.43773989574224
N        -0.60629406895674    0.94556330166072    2.63408068547528
O         1.70842120200159    1.11244761845795    2.73546519560156
C         2.39258611109247    2.34830714737571    2.36336971350988
O         3.50367829516784    2.18321262094522    1.44813022400619
C         3.47574727472487    1.47343701351484    0.17402912471477
H         1.47978082425348    1.52704249449136   -0.98400924354349
H         1.05762851964392    2.09917519155132    0.61114626100022
H         0.17740652668868    0.65831509114951    0.01529147210771
H         3.72668482711094    0.31670671908324    2.33255140017001
H         4.06464983292716   -1.05881428037392    1.20129959498913
H         2.31372992166880   -1.05414035116737    3.56834585330952
H         2.64029886335863   -2.40367674019404    2.42592040025186
H         0.18815358063771   -3.06143537027526    2.37607231213006
H        -1.05478553021763   -1.80497245624362    2.19860774382433
H        -0.12091683202067   -1.81613145167843    3.71821404063678
H         0.17518610989868   -1.41718369280142   -0.17411660208023
H         1.17670710356851   -2.67769916210658    0.36144088083614
H         1.85984333929805   -0.76400199878340   -1.49472427883461
H         4.26636759003065   -0.28335270964426   -2.00161626022433
H         5.17504244257540   -1.60817219127010   -1.78407158325722
H         2.87567570404957   -3.51089623889446   -0.17038833952284
H        -1.32542872281387    0.23567796270032    2.49738076464617
H         2.81444633663200    2.82248657764094    3.25568380615346
H         1.67034250449910    3.00196109913235    1.86484646438738
H         4.51067161701522    1.16805014275583    0.00561335459565
H         3.11251747566184    2.14414776411053   -0.61234614282967
