38
 energy: -53.132376505264 gnorm: 0.144222866695 xtb: 6.4.1 (79825abcba525fcdf90b791dcacef51065a7a4e7)
C         1.17372177220104    1.15428891326584   -0.10036162384967
C         2.52389835794367    0.35537377616355    0.40132224538761
C         3.25289801199215   -0.44615946782226    1.73360204123425
C         2.33812896945117   -1.43480680370625    2.53597123791429
C         0.96216917268454   -1.11811022071066    2.00467638456310
C        -0.13341985181628   -1.92797980373904    2.68488598468571
C         1.15943871890302   -1.57034481877046    0.37818994597476
C         2.35035123385658   -0.90903783054782   -0.43802342894757
C         3.55593970098885   -1.74245853154080   -0.84150281514920
N         4.28375858498624   -1.21411577404507   -1.87636489000732
N         3.84564696924827   -2.95222103053161   -0.46272114448908
C         0.65704793586525    0.42156120793534    2.48576028952526
N        -0.48998347884455    1.03152227875101    2.53964699324320
O         1.71476438288867    1.08005927738720    2.93490867734930
C         2.24201972014247    2.31330959413011    2.35613330368500
O         3.38686326595733    2.39994132587452    1.47223649520861
C         3.48874431196501    1.51522854917243    0.31690160403656
H         1.33251568719766    1.47419137866151   -1.13508161713682
H         0.85745165301603    2.03508643303650    0.48008060316384
H         0.29379077483922    0.52021496153913   -0.11445873089119
H         3.72569878220440    0.29896443130304    2.37857881989668
H         4.01034655835246   -1.03480481078931    1.19134047822576
H         2.41345645706198   -1.35109779413903    3.62420178984501
H         2.42705033838061   -2.50782761634311    2.32342697371601
H         0.02866368764626   -2.99931759804183    2.57788684129408
H        -1.12379165526202   -1.78760419682497    2.21799847230945
H        -0.21224053333852   -1.70279135184670    3.75413485791777
H         0.23778786779345   -1.35555652367548   -0.17357552457058
H         1.35181339252108   -2.64241617523204    0.55640387494571
H         1.86039339102802   -0.67836102111247   -1.39966129212953
H         3.77070698154809   -0.66032845065089   -2.53501750912025
H         4.96608190580127   -1.87948562282708   -2.22234515161581
H         3.33227936963622   -3.34250247731858    0.32484997708201
H        -1.29097844660891    0.44395029990063    2.30954930792039
H         2.66301309537170    2.78774250372212    3.24872202582250
H         1.36559784518153    2.90012606404625    2.06466138811410
H         4.54923762722983    1.26223878577900    0.25331302765895
H         3.25741614790815    2.13235824140927   -0.55820586289812
