38
 energy: -53.132508816480 gnorm: 0.146650677796 xtb: 6.4.1 (79825abcba525fcdf90b791dcacef51065a7a4e7)
C         1.20559706734607    1.24340796037887    0.07071135718908
C         2.56483365983833    0.36105779833982    0.36543660331873
C         3.28291969256607   -0.50810008608252    1.66072903386001
C         2.33142082069090   -1.44330992983233    2.48416980793767
C         0.96718997262356   -1.14768518916573    1.91205400274384
C        -0.12933301973693   -1.88025539778923    2.67354422548918
C         1.08386284407843   -1.64254658937745    0.29020655033920
C         2.18007175809365   -0.82492953473330   -0.51703082278450
C         3.33818610057025   -1.74345206558630   -0.87187833605570
N         4.17963458852273   -1.14647119297660   -1.77486459947045
N         3.74987704869653   -2.88358983308098   -0.40121116522150
C         0.70855141538353    0.41227631990250    2.35336453833878
N        -0.46056941814154    0.97387159025829    2.26168800188293
O         1.68448869249182    1.04968595093000    2.98215182443085
C         2.29701322579304    2.28413650895347    2.49755820088253
O         3.44388503928372    2.20842661859800    1.61528929761033
C         3.59142518079402    1.46985313619858    0.36603501715430
H         1.38838221458450    1.56016406573015   -0.96101230817282
H         1.15436721199945    2.22667356992638    0.56397444867762
H         0.28714056290255    0.66740213306749    0.03633122062568
H         3.80501346837133    0.18769032540102    2.32257420024664
H         4.07512780850083   -1.12558387808062    1.20751904012112
H         2.27930971355391   -1.27843617282246    3.56446061648406
H         2.59241635623169   -2.50585074824562    2.39847227406233
H         0.15771834700702   -2.90529584995456    2.90240694444878
H        -1.05509404361618   -1.89469917473998    2.07247561667640
H        -0.34787857664051   -1.47267451929715    3.66668638698003
H         0.10262263505363   -1.69080288002366   -0.19441536222171
H         1.34257679291480   -2.70135796872187    0.46367343685790
H         1.65419397231388   -0.50245571939923   -1.43217071680023
H         3.83004800772940   -0.43321534666575   -2.38542248980643
H         5.07245503472480   -1.56421801714022   -2.01223293228658
H         3.20454731678205   -3.26874062529952    0.36716928925276
H        -1.03558169472995    0.34081227051028    1.70637232365028
H         2.69750710277473    2.75668704957639    3.40051848033395
H         1.48525269941072    2.85874967781581    2.04117097305599
H         4.64247222290145    1.19940480418957    0.24416953347225
H         3.42167706539414    2.16204253613960   -0.46597114479292
