38
 energy: -53.121631125808 gnorm: 0.160718381969 xtb: 6.4.1 (79825abcba525fcdf90b791dcacef51065a7a4e7)
C         1.07092472168312    1.03288276858710   -0.01684297690770
C         2.56106092922235    0.39984393219785    0.28595203701411
C         3.33947110756529   -0.30082221519011    1.64683778838123
C         2.39971247301406   -1.26403628077463    2.45125972142685
C         0.96248837705965   -1.06438186801936    2.03851124766760
C        -0.08365806682836   -1.99103236084988    2.64331337623526
C         1.17433832058446   -1.60664698559151    0.44165256119231
C         2.33228094910592   -0.93795523828882   -0.41498273296457
C         3.50144082216556   -1.86891633240829   -0.69284216103177
N         4.38309590615053   -1.29332678239863   -1.57101463704495
N         3.70539950181294   -3.11382700969373   -0.37735933075688
C         0.60220548245113    0.47572336679701    2.47828491299709
N        -0.57866725925396    1.01750106097353    2.42676954422045
O         1.72102763867471    1.11011905677657    2.79435000906255
C         2.15263982403925    2.40378545464362    2.27087733741719
O         3.28172772698942    2.34566482290608    1.36466109997030
C         3.46974750035746    1.59666251343644    0.12710735980670
H         1.25185935988247    1.29574915833247   -1.06391627018213
H         0.81086599994473    1.99289491840022    0.45590470473953
H         0.25810363309312    0.33041605512105    0.13278808815432
H         3.57216350933526    0.46732145637178    2.38883158075857
H         4.20997419438711   -0.83241204115336    1.22980557823820
H         2.44888471064853   -1.07999916444150    3.52858956450220
H         2.66119744801749   -2.32973597823114    2.43214186476844
H         0.42602133526857   -2.94451369700443    2.77209541217291
H        -0.92905059354613   -2.31103395786392    2.00972359418411
H        -0.40014763515313   -1.72690454205194    3.65834368728511
H         0.24194084612109   -1.45161932082167   -0.11208095620604
H         1.32493133564956   -2.69875500031934    0.49387348471168
H         2.03089108959905   -0.80743430368335   -1.46861752890230
H         4.48174856836355   -0.31378412130352   -1.75672797130421
H         5.30296837865946   -1.71931464585665   -1.55221400696649
H         3.01631338618404   -3.51652453497650    0.25440739943992
H        -1.31488499901357    0.33739829601867    2.23909327470610
H         2.50017132392696    2.96170143118893    3.14665598925916
H         1.33778761829410    3.02080415372091    1.88007232966876
H         4.52949430065639    1.33507097360117    0.09246663353185
H         3.16942125555026    2.09924260260775   -0.79884741733824
