38
 energy: -53.134678238181 gnorm: 0.153942371026 xtb: 6.4.1 (79825abcba525fcdf90b791dcacef51065a7a4e7)
C         1.01655711202874    0.97806802718403   -0.08035230045298
C         2.46547379414269    0.30930018466808    0.32746986876543
C         3.25444073672788   -0.35530924087479    1.70031033953255
C         2.40587377401609   -1.39814440926743    2.50681589305497
C         1.02227799122190   -1.08229669402113    1.99521133698168
C        -0.07418018378055   -1.86980249709555    2.69984119671550
C         1.12364929012466   -1.69806907178484    0.41425030319779
C         2.31135686605852   -1.02613304389218   -0.39794210243513
C         3.55784494220790   -1.82363558750963   -0.74591679129787
N         4.51615535635332   -1.06936585009889   -1.37243432068218
N         3.89857893543300   -3.03024722343304   -0.40106920689197
C         0.65082418703319    0.48693521991891    2.30288336996466
N        -0.50325508989285    1.07348171757229    2.42413346358295
O         1.68809190048243    1.14507920255446    2.79789879467057
C         2.14864860912496    2.43051697759464    2.27883932439635
O         3.28449772052292    2.22127429024141    1.40390522329441
C         3.37432582660425    1.50156955500029    0.13826263109892
H         1.23616055204118    1.36988366667164   -1.07857742227332
H         0.62564528262833    1.81255121232409    0.52261535177806
H         0.15960767736170    0.32150336286368   -0.18564981712251
H         3.77277284647103    0.38076878128732    2.32020242980621
H         4.05269819412049   -0.95066490393688    1.22848843801586
H         2.42348721274338   -1.11233599780317    3.56271857939017
H         2.86051794575373   -2.37313306712800    2.28967188766248
H         0.14245872293981   -2.92559846566836    2.85426598995990
H        -1.04214573460494   -1.81678767594301    2.17186611133552
H        -0.15945152667280   -1.51549260163121    3.73299606982479
H         0.13784006530481   -1.67313948275914   -0.06280117390873
H         1.33723514261199   -2.76161891849647    0.61759242074440
H         1.87399575653635   -0.83403767248576   -1.39284535700773
H         4.28926539505190   -0.20186259880329   -1.81929522591958
H         5.18523121806855   -1.63707215415844   -1.88040236175151
H         3.17740946975033   -3.46981529327948    0.16711094807481
H        -1.31338132912176    0.51668882407262    2.15310604091263
H         2.63743084493638    2.97413301211782    3.09407558846940
H         1.32644998018747    2.96383806693201    1.79203054709657
H         4.41632438451823    1.17474267646073    0.12746447066684
H         3.18259356291238    2.21824613631131   -0.66783181884667
