38
 energy: -53.124599944446 gnorm: 0.156402681341 xtb: 6.4.1 (79825abcba525fcdf90b791dcacef51065a7a4e7)
C         1.09009417732248    1.19743031657286   -0.12455421625228
C         2.43290401988047    0.33224467045120    0.27699831681492
C         3.24253106378708   -0.36860156555088    1.61945281940178
C         2.39958378424979   -1.36363999820220    2.48971753703722
C         0.99686591090932   -1.09843721262403    2.00198160645807
C         0.04413313219504   -2.04681915294844    2.71735638903867
C         1.11106917549209   -1.70861180398915    0.41972558064313
C         2.18562007721783   -0.96821747536077   -0.48523875167027
C         3.46827892374286   -1.75833347225576   -0.68854215134829
N         4.40837016617110   -1.13884062044068   -1.47101450849945
N         3.71369060055981   -2.97667797427467   -0.30599677866737
C         0.66792527379311    0.48252914897831    2.29773860192120
N        -0.48934628542623    1.07526324276116    2.29262260236560
O         1.69506294659721    1.10182113311387    2.85950697588352
C         2.22337871714179    2.35259591995416    2.32068385225718
O         3.37827562357490    2.16786587988579    1.46538663602727
C         3.38919039708846    1.49730981333657    0.16995983733206
H         1.30690478456588    1.20833759766825   -1.19743480520658
H         1.01033399501395    2.21264906007805    0.29462767229363
H         0.18598183362801    0.66092311359901    0.14240637029524
H         3.62286498828144    0.47062205989319    2.20749623004786
H         4.10099254781295   -0.82764618420728    1.10311847465035
H         2.49178199094524   -1.14183577701290    3.55706449756276
H         2.73452342941501   -2.39304456943726    2.30917006146148
H         0.35566399356448   -3.07055774352827    2.51637783632889
H        -1.00891195216850   -2.02986260590822    2.38669933939643
H        -0.02528800437407   -1.88768297691607    3.79905508469373
H         0.12635309821342   -1.59699127190346   -0.04706617695268
H         1.32643996112117   -2.77448180043274    0.60851589835081
H         1.71183034119350   -0.93678339763233   -1.48150831083051
H         4.43188058293748   -0.15210282144121   -1.29919657712480
H         5.36327109535753   -1.46495413297292   -1.57000279072825
H         3.00574206282690   -3.40638500991347    0.28586039048211
H        -1.25952728467651    0.52358785506001    1.91545658189213
H         2.39936193584029    2.97422434480429    3.20479054021740
H         1.36976537407836    2.83719857005600    1.83702148315097
H         4.42933828460388    1.21447078577398   -0.00550485146475
H         3.23257516281848    2.18761283035096   -0.66617906486932
