38
 energy: -53.125486655370 gnorm: 0.152920441166 xtb: 6.4.1 (79825abcba525fcdf90b791dcacef51065a7a4e7)
C         1.11707332715944    1.18061179477888   -0.05542877901300
C         2.47763439869920    0.36873872901427    0.39475406891954
C         3.31433270385232   -0.43601207277539    1.66013052193491
C         2.42811527301768   -1.36116265523423    2.56386573626593
C         1.04631812613465   -1.10965806598924    2.01321307346131
C        -0.00694940963898   -2.05014650121559    2.58329915227116
C         1.05249099849351   -1.58358169412360    0.38096069473922
C         2.17975189244211   -0.85582174145907   -0.46842271313966
C         3.38182202034452   -1.73867712407714   -0.76240068072217
N         4.14500683652355   -1.29469700339801   -1.81132227650731
N         3.72389898554397   -2.90948425129435   -0.31170655552487
C         0.67777257717643    0.43218353163020    2.43985980145698
N        -0.52761486736631    0.91586994820368    2.37881978909645
O         1.72497809294191    1.10564071812510    2.89145039038548
C         2.27545420603039    2.34278693344512    2.34342598877319
O         3.49120461884438    2.27942449834352    1.55768970806171
C         3.46969855482138    1.50614056368729    0.32097446105062
H         1.31788533698731    1.35761577799890   -1.11681593137658
H         0.97735740848393    2.21693109191606    0.28992033671597
H         0.21290460487638    0.62014784768236    0.15643472959279
H         3.83642903750053    0.26280627305567    2.31877577782216
H         3.95559786300787   -1.05328697277657    1.01049221598498
H         2.62829823667188   -1.06143424585977    3.59683079358103
H         2.65936897623062   -2.42880898371821    2.45846759873773
H        -0.02987533375570   -3.08790231458118    2.25463241660578
H        -0.98790231841143   -1.57464425140863    2.40964843608811
H         0.25787699230581   -2.06369527094871    3.64626627561548
H         0.08914227505659   -1.31215469267804   -0.06435499143717
H         1.35226934818585   -2.64442950332599    0.32766836613605
H         1.83430216812906   -0.61761935897720   -1.48917829881136
H         4.19556697265572   -0.34048363048755   -2.11239723392905
H         4.95345702124535   -1.89030248064762   -1.95148969930420
H         2.98321026839097   -3.21394915198956    0.31663692600540
H        -1.24138554180550    0.19758572994595    2.25891184149299
H         2.56432552236312    2.81180110170638    3.28979573715511
H         1.54206341901957    2.97959015554380    1.83939786085433
H         4.49684188192781    1.17901222331581    0.14588296443079
H         3.27700478769401    2.23938520596593   -0.46984552926472
