38
 energy: -53.126888659879 gnorm: 0.159956527636 xtb: 6.4.1 (79825abcba525fcdf90b791dcacef51065a7a4e7)
C         1.13302042983978    1.14993584840344   -0.00328877800342
C         2.52736966365273    0.34962186472351    0.35478473693484
C         3.33951938428090   -0.34711163330373    1.69785612207314
C         2.44225780619033   -1.36221517150276    2.48684836028077
C         1.01542805308004   -1.17851535597543    2.03270350552498
C        -0.01443091250361   -2.06370462808149    2.72170251401286
C         1.02255884662646   -1.60187002647235    0.38661433282640
C         2.22345629664618   -0.93643344886641   -0.41141029712750
C         3.33448817656285   -1.88267170450432   -0.83693415047787
N         4.30582443197757   -1.22320377504183   -1.54503996564175
N         3.46254623883290   -3.17501915081308   -0.77082542972623
C         0.76874350983912    0.40947651661372    2.36819926274498
N        -0.37048447768788    1.03426705769184    2.31886617439232
O         1.83177710523825    1.08029561021630    2.78542750751153
C         2.16490021826598    2.45376941385769    2.41598984227502
O         3.22481518691266    2.47009584111728    1.42818465516666
C         3.45997250051325    1.53831505675872    0.33074182916069
H         1.08754145365441    1.41853990385943   -1.06346898833264
H         1.13175389887045    2.15032439032377    0.45710822579562
H         0.22108258573672    0.59081067660835    0.17636497452890
H         3.84402506063371    0.39550604829864    2.32134488490982
H         4.17301180369904   -0.86818391557675    1.19980662367496
H         2.60296205724020   -1.19799816203179    3.55649039460389
H         2.83836574749514   -2.35286600599191    2.22962246666549
H         0.36979347671863   -3.07377456298112    2.85442369193429
H        -0.86997003783917   -2.20214786015216    2.03802726025578
H        -0.23204947079554   -1.62022008982913    3.69954673798032
H         0.01108693226518   -1.35906287714558    0.04311950688535
H         1.18641286142390   -2.69222847301407    0.43535379907996
H         1.76488082907835   -0.68933114949540   -1.38437835934225
H         4.47491895930318   -0.28852513922621   -1.22643596212554
H         5.16808176834968   -1.73583228649717   -1.69237897824269
H         2.70605888066368   -3.67228638297365   -0.30543704511602
H        -1.11254085198286    0.41743676886023    1.98924297433746
H         2.74531261611244    2.91244441163958    3.22331587758803
H         1.28744083871437    2.96914529352860    2.01364981821252
H         4.51537541396392    1.28187364384271    0.44500416823381
H         3.39003583270739    2.29700530346723   -0.45645116699678
