38
 energy: -53.127131874011 gnorm: 0.150125263035 xtb: 6.4.1 (79825abcba525fcdf90b791dcacef51065a7a4e7)
C         1.16137142776053    1.13815223769425   -0.15845643736547
C         2.54036823635693    0.36963040632997    0.31129975295215
C         3.28188185057121   -0.36127745677036    1.67687534388403
C         2.48191705586184   -1.41539518204941    2.51765736057838
C         1.08130777847499   -1.15348744082585    2.02214324411431
C        -0.03357570900159   -1.94387504116103    2.69386593777428
C         1.14606416909000   -1.67811923983110    0.40676167710877
C         2.25080830921761   -0.92341218441743   -0.44866888989256
C         3.45985101974575   -1.81890772798565   -0.66576951554384
N         4.29614324720777   -1.27744493802498   -1.60770330522986
N         3.76985442601493   -2.95938568092979   -0.12342361499643
C         0.66040761708864    0.40511046039801    2.32004323334751
N        -0.57141446819793    0.81645687289097    2.38364988909691
O         1.68641972971941    1.15054906112646    2.70180032146569
C         2.12230126892157    2.47774170346195    2.27465581992641
O         3.32257216676588    2.35839382347556    1.47181634650757
C         3.42083666490739    1.59514938229386    0.23258386225675
H         1.29727852297230    1.26152005665396   -1.23758024779363
H         0.98894635677279    2.13820673974860    0.26921729401492
H         0.21094709686996    0.63008810267155   -0.03560906467455
H         3.67719241747612    0.39845170039502    2.35605601911501
H         4.02091313611058   -0.97361316239880    1.13543561947448
H         2.49153649916085   -1.18597996652638    3.58733173797908
H         2.82178606353052   -2.45685299916473    2.45200383932570
H         0.30722335869484   -2.97155757958194    2.80879702971886
H        -1.01511662577280   -2.05983225545064    2.20227982435565
H        -0.18087852592197   -1.52645884953354    3.69600429757837
H         0.19367130185880   -1.34421511124792   -0.01923750355521
H         1.21497314616504   -2.77354055888289    0.29096500627180
H         1.91440576226988   -0.67106175708770   -1.46904647732160
H         4.59729350477897   -0.33552152188601   -1.76837193894110
H         5.00400902064089   -1.92861385809289   -1.92846734820373
H         3.05731829536315   -3.39718604754482    0.45688429696207
H        -1.30456270088757    0.12768489091873    2.21672016583534
H         2.39471054645572    3.00491265659660    3.19493870825584
H         1.34076892343009    3.09538998733001    1.82172919287851
H         4.47129608411658    1.31296412603216    0.13460489714898
H         3.18247485189172    2.21061388647923   -0.64180845649194
