38
 energy: -53.128098257134 gnorm: 0.154438024178 xtb: 6.4.1 (79825abcba525fcdf90b791dcacef51065a7a4e7)
C         1.09748514317093    1.19745720109020    0.07890039003095
C         2.51039603729222    0.40381433888695    0.37342154130226
C         3.29407421802037   -0.29876772083803    1.73029014986732
C         2.43493988682251   -1.30453278904041    2.57192373832096
C         1.02462365112350   -1.12078083889244    2.06885354429188
C        -0.01350479001286   -2.09234743707584    2.61404784460416
C         1.12824739226423   -1.62507455181640    0.44902654092693
C         2.20014191912328   -0.85511937178311   -0.43415803095783
C         3.34441741159476   -1.81475614530410   -0.71798918342392
N         4.49219714035187   -1.21961966270910   -1.17430068703571
N         3.37606315371015   -3.10783090196450   -0.85173295096617
C         0.66593415437938    0.44590436362585    2.40346989931076
N        -0.55286667750866    0.89885060899849    2.40222227651677
O         1.77317564251539    1.06936462665884    2.77687533789418
C         2.26344599856023    2.36636960192573    2.31720315311223
O         3.30259549104692    2.40722115333497    1.30827062889513
C         3.49946734498085    1.52650777677365    0.16219882700275
H         1.34922538849484    1.46327135444119   -0.95268491868949
H         0.94914055193005    2.14933723862728    0.61243812166407
H         0.18678596063483    0.61192138196736    0.01331182525612
H         3.82858901583112    0.41638358428184    2.36084369362320
H         4.05094476323405   -0.86746100080839    1.16636270165541
H         2.54207829445517   -0.91864054759518    3.59002771028122
H         2.75412738417188   -2.34874181817264    2.46145849240424
H         0.29358490019722   -3.03846216083363    2.17127542249400
H        -0.97586631256061   -1.74247204414011    2.20176992573913
H        -0.09480469029139   -2.11328496958805    3.70636997294450
H         0.15463875119955   -1.58379936312739   -0.05137530713899
H         1.55693848886063   -2.63903716663371    0.52782358771519
H         1.85375501969218   -0.59552087176724   -1.44936371611881
H         4.46363759359334   -0.37124904501023   -1.70644471709826
H         5.10752617041090   -1.92522995504125   -1.56349060762926
H         2.51106902099684   -3.61188355033993   -0.66774856739493
H        -1.29851191606230    0.21085636302309    2.29996866612866
H         2.78245895847608    2.68587137766543    3.22691782805079
H         1.49532603003032    3.12927687286322    2.15786405365933
H         4.56518669863420    1.28991261684192    0.19315658848413
H         3.34266022905200    2.10011709242669   -0.75788743284544
