38
 energy: -53.132145215837 gnorm: 0.146568019900 xtb: 6.4.1 (79825abcba525fcdf90b791dcacef51065a7a4e7)
C         1.32201727572201    1.24891478590031   -0.20182376438339
C         2.62682916705009    0.39771925458763    0.33283594108348
C         3.31836800157553   -0.35180754602261    1.71444698767608
C         2.42201893045747   -1.33252389645304    2.54677867894802
C         0.99831203022611   -1.15936583905227    2.07889917218199
C         0.01422222417365   -2.13238457318724    2.71426595180546
C         1.11912088940086   -1.60940153696540    0.44434643157517
C         2.27259725373980   -0.90217399356609   -0.38699303383015
C         3.43656997813083   -1.81491119596408   -0.73757474993823
N         4.13339208527532   -1.32690276245810   -1.81279223429977
N         3.83264864096215   -2.90465028016472   -0.14891391206905
C         0.54904546200537    0.40093817671426    2.32126203104333
N        -0.64732938600036    0.90499718342644    2.39371269651474
O         1.61195262060980    1.07254843847658    2.73753851185741
C         2.11788447315782    2.37801559987536    2.32079647532729
O         3.22050784435118    2.39732737349747    1.38095918679027
C         3.59297421378829    1.55650722107970    0.24862291427821
H         1.50870778851555    1.25164037306050   -1.28040514038530
H         1.13409297230989    2.25816488070313    0.19672728384696
H         0.42829246300373    0.69199089128521    0.05821238783329
H         3.87831034814051    0.32088549936338    2.36919416308084
H         4.10979059394216   -0.91007657814014    1.18883762376626
H         2.52024564159370   -1.08904542953308    3.60885066612887
H         2.75732019536303   -2.37711415199004    2.57610411494760
H         0.44060006466752   -3.09602852509320    2.98826746344899
H        -0.77682653052178   -2.37477078312847    1.98350171965602
H        -0.48181792575023   -1.66763066006775    3.57343046576718
H         0.13820410731641   -1.42590570291780   -0.00748426995047
H         1.21876169598120   -2.70657090509304    0.51065103341347
H         1.89193411261161   -0.68962412414083   -1.40086481054923
H         3.86363569328166   -0.43395051035088   -2.17829652165015
H         5.04855798451649   -1.69821071350286   -2.04210919560327
H         3.24223941994329   -3.21517630455795    0.61993244179064
H        -1.40564499142867    0.26037912943048    2.17189357656858
H         2.38366896376834    2.91029297734802    3.24007664166405
H         1.27567956777836    2.91129053846737    1.86942801063204
H         4.63267918526131    1.31430303167810    0.47893595468773
H         3.54985990473445    2.18368020791029   -0.64857831446268
