38
 energy: -53.120131921772 gnorm: 0.168082947414 xtb: 6.4.1 (79825abcba525fcdf90b791dcacef51065a7a4e7)
C         1.06438303734768    1.05477508371169   -0.16130445509303
C         2.51457494836980    0.41098633304490    0.28074573810162
C         3.35851585915223   -0.27044942619381    1.61201374932347
C         2.46977369565040   -1.21490423417269    2.49301587172971
C         1.01161182851619   -1.10898790608692    2.12101861075212
C         0.05986315409966   -2.15510422957204    2.68555754772866
C         1.12470070306429   -1.58836754723882    0.49427474264082
C         2.25531033171614   -0.92907545527219   -0.40509149460127
C         3.43414701151510   -1.85778793784241   -0.64730304681614
N         4.57010427304964   -1.28579974308600   -1.15939338747592
N         3.45137653803365   -3.15694824834499   -0.59422961757925
C         0.59675043681804    0.46249416814860    2.35223903760105
N        -0.56758460604776    1.03969050466969    2.30974646542979
O         1.70512194410488    1.09754424705524    2.70201332803344
C         2.15785539169345    2.40575232780105    2.23563417966473
O         3.32196016973494    2.43460058520214    1.37338524998829
C         3.38830856650589    1.63726309724969    0.15365332351893
H         1.33718839399775    1.27677346030959   -1.19788176634684
H         0.85844095525130    2.02501085179030    0.31720850595745
H         0.28955456110303    0.32141225774216    0.03451909766645
H         3.81562305380334    0.54919259476436    2.17235757325081
H         4.10036735189895   -0.88874039741700    1.08130491237059
H         2.57745808698104   -0.95816903866814    3.55104151526240
H         2.87875646226964   -2.22990507385054    2.40957659453632
H         0.39529169646032   -3.15741170193792    2.42411543382327
H        -0.97130567151837   -2.10969621140885    2.29420793420183
H         0.17517376319279   -2.15574539843333    3.77501555026690
H         0.12509187937598   -1.60090460644926    0.04634120722822
H         1.37719953873999   -2.65415714995420    0.63007635063594
H         1.73907485204421   -0.78245487608926   -1.36946754930937
H         4.44985480423764   -0.30254380587738   -1.00948190149487
H         5.42617933768624   -1.82219744809031   -1.07338482055205
H         2.57632270752907   -3.64620739522239   -0.41804660956745
H        -1.40702820140893    0.48375382103027    2.14835391391659
H         2.51480425269891    2.88933846106434    3.15093117546415
H         1.28459079858256    2.87287794221786    1.77020173322114
H         4.43957166764588    1.38998740886582   -0.00880903444677
H         3.18769512764314    2.43547467133437   -0.56938704054337
