38
 energy: -53.132863729259 gnorm: 0.152719382610 xtb: 6.4.1 (79825abcba525fcdf90b791dcacef51065a7a4e7)
C         1.09325067973982    1.14042865124723    0.07908261145949
C         2.53328307967154    0.37188431769927    0.29948039848168
C         3.30094859605024   -0.43018069889147    1.60953643333471
C         2.43028671412031   -1.45949484207652    2.40983796576171
C         1.02213984759757   -1.12069836748253    1.98772942499432
C         0.03966689748163   -2.11490106679725    2.59204475136259
C         1.01097875078915   -1.48215030968395    0.32697132629233
C         2.21104127177679   -0.87702941197898   -0.51889064457069
C         3.37797833462839   -1.82551864360567   -0.74127611017404
N         4.60846814525422   -1.26809380286137   -0.97575056593934
N         3.27669889736340   -3.10981299289187   -0.91808576519454
C         0.75356305468459    0.44166624236900    2.41435818406312
N        -0.42326045478681    0.96815952101640    2.58326227935734
O         1.79780978089442    1.12488130704253    2.85807430617849
C         2.28608347305943    2.39692158824938    2.33139814354797
O         3.37444457302545    2.41614061010547    1.37507910312731
C         3.37702656796875    1.61705504770472    0.15468951709643
H         1.19510965620495    1.25718192147622   -1.00451878501833
H         0.92542205173543    2.11891670648730    0.55567353494244
H         0.13975743708669    0.62376746017821    0.10003260567485
H         3.64119004849731    0.36592741752369    2.27676417061626
H         4.18070924615643   -0.95412561839669    1.20237289761188
H         2.57806430894894   -1.26877372194286    3.47694357902614
H         2.66143636142086   -2.47539599677910    2.06491709123096
H         0.23933574927346   -3.15330619778264    2.33256125897748
H        -0.94193902706192   -1.90582323695420    2.13241246742042
H        -0.11190381732777   -1.90441983148034    3.65644113114911
H         0.03249191404191   -1.17717851793004   -0.05977814356905
H         1.13721070984769   -2.57844809628018    0.30959691054150
H         1.78531524011798   -0.62719249601925   -1.50598572312449
H         4.84790322607240   -0.33255524785487   -0.70898462846533
H         5.42700767278551   -1.86452944813826   -1.02310080453615
H         2.37399061824646   -3.56214213528960   -0.78904980711788
H        -1.15708591224258    0.29382831664386    2.36749309592959
H         2.68622779037431    3.01004510948728    3.14564669000016
H         1.39735765045592    2.92994976229647    1.98001213812801
H         4.45102332900175    1.44899471079660    0.04990368693659
H         3.07120591459834    2.24522748517686   -0.68913982491221
