38
 energy: -53.110281581963 gnorm: 0.148556794440 xtb: 6.4.1 (79825abcba525fcdf90b791dcacef51065a7a4e7)
C         1.22966410850524    1.13919897616138   -0.09363334002112
C         2.59208942806824    0.32639620577916    0.34917343946067
C         3.20156295491756   -0.32541831388562    1.81632897410974
C         2.29055344863617   -1.47506019418534    2.36986986487956
C         0.89075772864290   -1.10110046100513    1.94967664020003
C        -0.14052076840256   -2.04522014439256    2.55299399598905
C         1.01848952114720   -1.46893907033591    0.29520727169221
C         2.31825180896380   -0.94513115463104   -0.45181823606154
C         3.57473241177801   -1.77863720706783   -0.64508864282063
N         4.48575910086219   -1.11933072216173   -1.42940444535267
N         4.02485688396786   -2.80503519826843    0.01432497157654
C         0.48488632614398    0.41149504523092    2.44207078472443
N        -0.64428119376021    0.74169855008193    2.99577078030272
O         1.46186228585541    1.27968639666662    2.65626640228206
C         2.18392685577255    2.36661867314819    1.99969470995549
O         3.36089071431148    2.35546058612749    1.15466399871843
C         3.66335710668125    1.36810594367735    0.12435334253687
H         0.72141377554324    0.66724534589435   -0.94047448911586
H         1.58092429081362    2.14578607677870   -0.36957344734707
H         0.35969889087716    1.26145462260178    0.54255935344924
H         3.47001303167074    0.46648013463716    2.52030102210304
H         4.13432993791019   -0.76060957592549    1.42284001039343
H         2.40139571291022   -1.41488904116216    3.45661757595791
H         2.62562876259556   -2.44081800741397    1.97050523254341
H         0.02642100688716   -3.10563478129480    2.37096159231927
H        -1.18150855457817   -1.77831099947313    2.30074509802595
H        -0.07189737656481   -1.85381136223599    3.62950187186424
H         0.16367740067258   -1.08463039977105   -0.27191046519222
H         0.92201224224169   -2.56054659030409    0.42631932113350
H         2.07530960058554   -0.71448092940396   -1.50338726628932
H         4.10924182089046   -0.48764809263165   -2.10979949345633
H         5.19212860828660   -1.71995259830108   -1.83962387217153
H         3.31358454043593   -3.23231661683620    0.60394894081601
H        -1.28729848450346   -0.04252066662688    3.10210841431012
H         2.56081911794151    2.80387242114522    2.93017738409228
H         1.44341664392720    3.02409223340572    1.53407911831319
H         4.62403700797089    0.85969087672286    0.23066258401466
H         3.74409304938688    1.84337079909557   -0.85940469738126
