38
 energy: -53.131927408421 gnorm: 0.157123493600 xtb: 6.4.1 (79825abcba525fcdf90b791dcacef51065a7a4e7)
C         1.08984621255670    1.03967620713832   -0.08666469491870
C         2.53811494711876    0.35482709581841    0.29599477477225
C         3.29932025993527   -0.33894661989616    1.67007991858238
C         2.40775200252446   -1.29810254388549    2.53214037505389
C         0.98899955487413   -1.13140292796241    2.04717746910546
C        -0.03025846030728   -2.06430599914361    2.68725097999559
C         1.06827343174089   -1.58888592212648    0.41215009752705
C         2.24976266144087   -0.95356597360298   -0.43770611911866
C         3.48149308175761   -1.81233798049348   -0.67472944649638
N         4.41317095734941   -1.19698088910484   -1.47041651089131
N         3.75536132977494   -3.04615091612644   -0.36873437450902
C         0.63217573412774    0.43908779525494    2.36555530468371
N        -0.55210836241055    0.97500901697240    2.39550478601981
O         1.63095833763074    1.15871441363219    2.85411328391141
C         2.19107184224991    2.36117482429561    2.24235574884210
O         3.38335656865060    2.35100633248388    1.41907019786545
C         3.49426335311976    1.52266233850680    0.22347785057874
H         1.06114705459201    1.29465061401741   -1.15079014111929
H         0.86429556817884    2.03339847262687    0.33093224312050
H         0.19733877880293    0.42446072722688   -0.04835735820156
H         3.70213070614467    0.46981475198313    2.28521732308115
H         4.10961244824913   -0.91530471428544    1.19519345713506
H         2.44120706696350   -0.93512738459530    3.56367173890113
H         2.73998247257372   -2.33677737561721    2.40871736659497
H         0.53190380292263   -2.88098845428725    3.13723755753739
H        -0.84599140774078   -2.41244887310374    2.03005857270182
H        -0.56022099916321   -1.59141791178447    3.52135664150563
H         0.15802982644657   -1.34346813402930   -0.14574427067997
H         1.18057979978139   -2.68335903766487    0.49944892870632
H         1.91426845824586   -0.86129641894798   -1.48505888549196
H         4.35013005621125   -0.30177236833611   -1.91578508120264
H         5.28969858648185   -1.63401622446780   -1.73249267472447
H         3.15140043102906   -3.50087867687650    0.31287260141042
H        -1.32944665948735    0.38138089928976    2.10718284524164
H         2.53828816968699    2.87144969574401    3.14684290004380
H         1.46213769397250    2.99932900139299    1.73359352746555
H         4.55672033428582    1.33474027471980    0.05446941730650
H         3.21364885420634    2.09150693401035   -0.66974450675631
