38
 energy: -53.129833237821 gnorm: 0.157703562709 xtb: 6.4.1 (79825abcba525fcdf90b791dcacef51065a7a4e7)
C         1.13323677677428    1.14904054856558    0.00859773368955
C         2.49431527709478    0.29939923748464    0.38075881776590
C         3.28336536714727   -0.51832813963546    1.66823207103569
C         2.34271365063374   -1.44580752199360    2.51261268495371
C         0.94646939415531   -1.19919235706168    1.99732710925271
C        -0.22134741426672   -1.87955398041686    2.69889757106515
C         1.01939421769749   -1.64074508682642    0.35763118599830
C         2.19922191292046   -0.94864597627586   -0.44909631044806
C         3.41746394781031   -1.73868512193456   -0.89915600733574
N         4.26053664834309   -0.95929634503595   -1.64854741299051
N         3.85453238783063   -2.92528155304949   -0.59602031691920
C         0.70523773738389    0.39078673924923    2.32733104125764
N        -0.40908215602001    1.05949727465295    2.36922092095853
O         1.73913333006763    1.02210218724814    2.86269894691494
C         2.33047446382869    2.28378665852103    2.42411777868300
O         3.42177646245864    2.23794273055036    1.47206543615700
C         3.50877389939645    1.41396260702975    0.27148917196920
H         1.31316624207036    1.29875338140702   -1.06070578696789
H         0.96505657628382    2.15682815756701    0.41947945839336
H         0.31993452221358    0.43371742935896    0.06672987669853
H         3.80508703162196    0.22303493316628    2.27891409648715
H         4.02790708056793   -1.12692556159345    1.13013723548090
H         2.57258599047967   -1.34512749782787    3.57748328360880
H         2.64700374204279   -2.45867514347429    2.21941914223493
H        -0.01844692849986   -2.94928071294389    2.69971842688813
H        -1.20216211486183   -1.65888894810047    2.24300829395126
H        -0.28363518117812   -1.56900332900307    3.74765598934159
H         0.03282922328637   -1.31595582403697    0.00946328254446
H         1.07920630840491   -2.74271907167523    0.34417546556520
H         1.76692506173031   -0.71140331671968   -1.43644285887642
H         4.10385498791573    0.02301884049510   -1.52924377325664
H         5.19208188545284   -1.35895418670032   -1.67049222055206
H         3.21612375944048   -3.42361034951423    0.02061329435866
H        -1.26752857545009    0.66511180820017    1.98541294571400
H         2.93007415697756    2.63088199379192    3.27208102672101
H         1.47576033872885    2.92171704582719    2.17930491033274
H         4.56554661098346    1.15161264245471    0.35573483915579
H         3.34067333327732    2.19958430722331   -0.47330314473124
