38
 energy: -53.123933151663 gnorm: 0.157184534340 xtb: 6.4.1 (79825abcba525fcdf90b791dcacef51065a7a4e7)
C         1.16649822207006    1.05543731101189    0.00764631467139
C         2.56953817327917    0.28368443349491    0.39339919621883
C         3.33279103439103   -0.33636982741903    1.80117873969239
C         2.38947767806368   -1.28169807126638    2.62248057055458
C         1.02108506061929   -1.12037587940536    2.00822240339048
C        -0.16501588734097   -1.92291830756372    2.52588962749541
C         1.20400931926068   -1.70908440288177    0.42428725544891
C         2.32685665837300   -0.97997911852529   -0.42977548786271
C         3.54542989478492   -1.80316828819636   -0.81483145075354
N         4.26559508682268   -1.39126881628345   -1.90639309978012
N         3.90851797309627   -2.92934932827252   -0.27555928022743
C         0.64816817968991    0.44392222749395    2.33842425575024
N        -0.52265540794976    1.00913660780794    2.31992550195005
O         1.60688727688160    1.15246629947422    2.91543471975647
C         2.07524585001473    2.38422017315566    2.28511089062258
O         3.29383718390675    2.23197958439187    1.51614837595743
C         3.45529882253421    1.50107106967443    0.26411081748815
H         1.33846836204972    1.56146316393660   -0.94763514247964
H         0.71325575959233    1.86913865966318    0.59518832620341
H         0.37968211867965    0.31100179399139   -0.04947848776706
H         3.82597392004523    0.44861527373963    2.38024200110022
H         4.09606999283386   -0.99580565917460    1.35752476318428
H         2.25647246732279   -1.06124496944964    3.68579482587127
H         2.78621855912561   -2.28953703993491    2.44552571589981
H        -0.22193358307251   -2.95886500058327    2.19564822219603
H        -1.09088834620413   -1.52754720934264    2.07315630841657
H        -0.15204415439327   -1.73538573504385    3.60518521609698
H         0.23688809409378   -1.57989453729985   -0.07371471056717
H         1.44581534262577   -2.77575099225532    0.57212988099576
H         1.86105021677319   -0.81629826565942   -1.41681691819120
H         4.22794115310434   -0.39312464483979   -1.98395609229115
H         5.23237604120529   -1.67619162197293   -1.79622016447791
H         3.28281548129862   -3.23541382315388    0.46670421303116
H        -1.22469070440911    0.45824372197743    1.82652689029646
H         2.48707930663365    3.02532132991055    3.07150719332445
H         1.24952119575941    2.91736401693847    1.80411069158771
H         4.54098418904341    1.38351117228929    0.25144798423535
H         3.31134301101598    2.27264281116933   -0.50017225378980
