38
 energy: -53.135543010708 gnorm: 0.152703282517 xtb: 6.4.1 (79825abcba525fcdf90b791dcacef51065a7a4e7)
C         1.07474712169386    1.12545075095440   -0.09434071618396
C         2.46386428427007    0.37657786156258    0.37732844161086
C         3.25220452253873   -0.32308531761642    1.73300412859169
C         2.38251170936153   -1.28900845930490    2.60973052254729
C         1.00159030539531   -1.15651628801201    2.01699263500671
C         0.06620028331226   -2.15271419037616    2.68894829158190
C         1.08757445492029   -1.61564831928381    0.38276680391747
C         2.26128429162312   -0.90986918471666   -0.42102722850413
C         3.46509461773695   -1.79392856137774   -0.70406241388878
N         4.24283822265466   -1.35564961067275   -1.74465472252808
N         3.87559001852858   -2.93130371951502   -0.22572945950420
C         0.65369187130226    0.43340360410915    2.23205133768908
N        -0.52732154823609    0.97726130325459    2.24001808679192
O         1.66187932432936    1.09421700225289    2.78068764084010
C         2.18346339445869    2.39726868202219    2.37585205514245
O         3.29662008181304    2.38613065446357    1.44838048863999
C         3.41915623294987    1.54196576823873    0.26505226591142
H         1.43147268764015    1.31596644842860   -1.11151779253928
H         0.93489795008061    2.10646067925069    0.38608197945837
H         0.20605836030150    0.47623224442156   -0.11488881564563
H         3.74271957337050    0.41195798718885    2.37631708283414
H         4.09624352287083   -0.86963327423134    1.28226836518564
H         2.33753044167243   -0.86572115068733    3.61756567947037
H         2.73662657714806   -2.32567945756988    2.54361219779961
H         0.67970188800404   -3.02679730434204    2.90126658476468
H        -0.77384082022460   -2.39403166566935    2.01469137184778
H        -0.33546160025813   -1.63465727627867    3.56672984849526
H         0.15061166009681   -1.42202040728095   -0.15073894484619
H         1.10538946290443   -2.71458643302514    0.48337916302539
H         1.87080942860039   -0.64011149287686   -1.41740969128652
H         4.26579001087516   -0.38221940372662   -1.98052007228132
H         5.10679874332184   -1.88552706962298   -1.71660851771955
H         3.20972905180145   -3.40126527740138    0.38410615726459
H        -1.29016196809528    0.42983646555171    1.84230052858545
H         2.70904180837866    2.83269868151234    3.23212577155963
H         1.40545766627153    3.07615522340942    2.01357467537992
H         4.46408032043969    1.22560761098713    0.29233893266183
H         3.28383417840549    2.14193332056390   -0.64153568752317
