38
 energy: -53.124860450155 gnorm: 0.149239310367 xtb: 6.4.1 (79825abcba525fcdf90b791dcacef51065a7a4e7)
C         1.10387829122622    1.08374122985195   -0.06752071864308
C         2.51672004449102    0.32220297804367    0.30243410338028
C         3.27611500464798   -0.34422705871254    1.69097857909006
C         2.47985843676739   -1.27670031959201    2.66795931925335
C         1.07345929645014   -1.18305864949329    2.13027075281553
C        -0.10177635457039   -1.90025075967311    2.78092104623110
C         1.20888237176655   -1.68327814806223    0.51152722940928
C         2.20750643415468   -0.95110600280843   -0.48269495574258
C         3.40566730207346   -1.76921111331030   -0.93650526305256
N         4.54840413951549   -1.14159913471567   -1.36084195282153
N         3.35567540077710   -3.04866948688022   -1.16326117776233
C         0.71837237940039    0.38897319229512    2.44293352042859
N        -0.46129240310853    0.92895600581707    2.52922914885998
O         1.70915779846130    1.14914709836933    2.88406611957613
C         2.21766419679952    2.37991951967692    2.28364462673084
O         3.39643650007586    2.30003818104030    1.44485966834588
C         3.46170168270625    1.49894308732336    0.22753380207147
H         1.23744373864854    1.20197626229618   -1.14751113949591
H         0.82571503850512    2.03831500715340    0.40593291344676
H         0.24510784072493    0.42210378838783   -0.03179577202523
H         3.87781430426194    0.31871288694705    2.31804620720511
H         4.02027101729223   -0.92427515190903    1.12172004549572
H         2.54045816092136   -0.88326103160546    3.68700807113986
H         2.76747864236399   -2.33542800951598    2.63921863889576
H        -0.02001719131066   -2.94920454568437    2.50074973978792
H        -0.99802602898900   -1.40785696049868    2.36521628961084
H        -0.08700826349504   -1.82200058045485    3.87356669198998
H         0.18250210032164   -1.64082134817642    0.13105331314839
H         1.35503305948183   -2.77723595715035    0.51274782075011
H         1.60721594463142   -0.75494867564636   -1.38778692549335
H         4.91267642126451   -0.25125759006211   -1.08097904262609
H         5.10577492517456   -1.72797815792809   -1.97197363598965
H         2.47955014122089   -3.54204621047196   -1.00477423581927
H        -1.24868768642890    0.32870189048702    2.28533904430388
H         2.53287104438401    2.82758262837031    3.23194785804127
H         1.40450633797348    3.02393467395354    1.93515713932055
H         4.52164961150538    1.23593146799985    0.23288857803032
H         3.23532222416336    2.23291746569494   -0.55362482392733
