38
 energy: -53.132872697069 gnorm: 0.146530555900 xtb: 6.4.1 (79825abcba525fcdf90b791dcacef51065a7a4e7)
C         1.09086918135572    1.02020451738697   -0.07765076927302
C         2.52831844056260    0.33121699391979    0.33703552022417
C         3.31257984346355   -0.30236728645533    1.72713280459403
C         2.40445503347144   -1.19220691033815    2.64447517598001
C         1.01699440734796   -1.17616606205380    2.05241777206688
C        -0.04783068194582   -2.10660522006086    2.61750150036448
C         1.12611534944508   -1.61964639475723    0.41525335346233
C         2.28462099798135   -0.95763506954081   -0.44579802326594
C         3.50326182001825   -1.83145874981307   -0.69514904215010
N         4.52916546033732   -1.26089485307567   -1.40351649592370
N         3.62205945379897   -3.09043783448048   -0.39218050901321
C         0.65727385922819    0.39266399716625    2.37568569750036
N        -0.50293901940422    0.96200490733561    2.51849446019484
O         1.69950933985555    1.14212346033804    2.70152885848178
C         2.17166521271466    2.43107552675846    2.20197219597222
O         3.34011372467905    2.38640947476596    1.34629796746763
C         3.35968181604815    1.57645725345380    0.13324824280525
H         1.22929306153475    1.33254483503998   -1.11759351486652
H         0.97866074284013    1.95586513175587    0.49216737884755
H         0.18117749808168    0.43093940427132   -0.03576134003049
H         3.72878423812437    0.52443281913924    2.30844228804234
H         4.12142645836490   -0.87903893609538    1.25016719866830
H         2.30989348115073   -0.90332802882740    3.69544342287884
H         2.80062378063238   -2.21417443871225    2.58890162201186
H         0.15190822477170   -3.14393420325619    2.35380185184080
H        -0.99491888523798   -1.80147992124955    2.13953910318041
H        -0.17878713668837   -2.02855793591431    3.70238615348670
H         0.17864900415953   -1.27641907782193   -0.01430686209561
H         1.24027782900848   -2.71494671725251    0.34184131829352
H         1.80658514591139   -0.73225635697602   -1.41466539837894
H         4.55391995510920   -0.39157534377747   -1.90090609287135
H         5.36700362544398   -1.81801665638447   -1.52852443794700
H         2.95546782385380   -3.47710559335642    0.27285919839659
H        -1.26488731646141    0.31932528334940    2.30360749914890
H         2.51708647870353    3.04298947659614    3.04178294201217
H         1.29534085975327    2.93015065761478    1.77723181701880
H         4.42061630465182    1.39216339138553   -0.04881541347117
H         3.12437627587115    2.19842004254443   -0.73736558032634
