38
 energy: -53.125833603098 gnorm: 0.154998075718 xtb: 6.4.1 (79825abcba525fcdf90b791dcacef51065a7a4e7)
C         1.08174862269154    1.06863919253490   -0.01573505915054
C         2.50757260352149    0.33787154390523    0.36627737886531
C         3.29065018620735   -0.36085275997332    1.72548277424010
C         2.32882489690137   -1.21100699910438    2.62556729922609
C         0.95595480945999   -1.08988017587146    2.01205910680231
C        -0.08512469510345   -1.97743801491978    2.68085180578446
C         1.18694152513253   -1.67845770184554    0.43436738702703
C         2.32247125432594   -0.96230751435568   -0.41386899452082
C         3.55009331023808   -1.81634436374471   -0.68662230753056
N         4.38302062217541   -1.13476784007194   -1.53602883613884
N         3.94131953679248   -2.99882139759002   -0.31296303820082
C         0.60612259898938    0.48939192204040    2.29249778441652
N        -0.58686407894102    0.99844817857935    2.38350245358058
O         1.70455473886392    1.08046639988114    2.73768971280982
C         2.24138858631452    2.35648945634924    2.27136359901267
O         3.39664187667803    2.31344553637795    1.39787494650989
C         3.42802873477104    1.52067358610280    0.17377419392702
H         1.16927776633621    1.09878482360248   -1.10643595742229
H         0.83296268102219    2.10028527804214    0.27846918563722
H         0.12342242571579    0.56562852039179    0.05580663492136
H         3.83275503433308    0.31697529520915    2.38987474307629
H         3.98041075515897   -1.01602863763007    1.16937652323323
H         2.26843813182671   -0.84794848595406    3.65584353149207
H         2.65083613265040   -2.25475660618409    2.51902504168704
H         0.23260971937786   -3.00179523509026    2.86852620533352
H        -0.85918585958308   -2.23568645447572    1.93743898563124
H        -0.44662914107614   -1.67698198124964    3.67042564731357
H         0.22397728124395   -1.57207910948693   -0.07690836303371
H         1.46755915004922   -2.73372042872121    0.59492744136897
H         1.95895590008854   -0.81224183375510   -1.44505991816844
H         3.90698192235610   -0.37714703903610   -1.98672108389318
H         5.05732521982805   -1.58229271324896   -2.14678188028348
H         3.35963309156755   -3.51243625245462    0.34580462171478
H        -1.42502332684656    0.45492309987441    2.17893396266617
H         2.54557189593151    2.86438165645056    3.19253386287190
H         1.45671681504144    3.00415770226626    1.86857233553172
H         4.47667626798318    1.25331500926181    0.02697113528268
H         3.13060607342378    2.02501039465068   -0.75216262533634
