38
 energy: -53.120979403143 gnorm: 0.158311489275 xtb: 6.4.1 (79825abcba525fcdf90b791dcacef51065a7a4e7)
C         1.09867354868007    1.18366683195083   -0.03358964933262
C         2.48926488591349    0.36825416473198    0.30447365207347
C         3.24023656976887   -0.40369526658668    1.64200909519506
C         2.39102408864643   -1.38696357368043    2.51953052654976
C         0.96443665546437   -1.13462020395790    2.09880803942696
C        -0.01378329095236   -2.08812082388244    2.77172068406124
C         1.08355314874546   -1.57720599425948    0.46209834695034
C         2.19826536842797   -0.92194045530983   -0.45977342038609
C         3.41411995723493   -1.77624683901614   -0.78022224623140
N         4.52764527538752   -1.05908781033134   -1.13455289265915
N         3.54175771854272   -3.06959818537424   -0.73683964244083
C         0.76118097190623    0.47243712837114    2.36560881660451
N        -0.44135759024557    0.94143169992505    2.52239675179104
O         1.81719352857608    1.11620151716951    2.83944734994136
C         2.24671404014513    2.39134030184281    2.27074823157186
O         3.31852090352268    2.25875258681382    1.30477932823027
C         3.48568041333431    1.48211588649645    0.08134633276840
H         1.27741492356429    1.52568772781795   -1.05792933189595
H         0.75116241161397    2.03646109708619    0.57033267919728
H         0.13942977151082    0.68155450891983   -0.09887090193235
H         3.73970834450644    0.31437134691290    2.29748870259729
H         4.07731554832774   -0.86713151381549    1.09537863622335
H         2.44520215636230   -1.06132719248543    3.56258030755474
H         2.57137543616675   -2.46562409804552    2.42776674596250
H        -0.38514887520976   -2.76662240107991    2.00542585164294
H        -0.89064254468164   -1.64242336094580    3.27271687039331
H         0.53492301475693   -2.71704347677961    3.48136381626448
H         0.15378332717366   -1.25897885172071   -0.02192541799785
H         1.14474987602762   -2.67900494367091    0.44211747078884
H         1.75231071506181   -0.64940119754222   -1.43181490242802
H         4.21177908394871   -0.25283713636470   -1.63845171793800
H         5.21341185522551   -1.67611395223476   -1.55525163467898
H         2.72139927113891   -3.54592925632856   -0.36771242431182
H        -1.18087633054850    0.30699537910832    2.22176191785050
H         2.89162037418573    2.91322585245451    2.98542852670514
H         1.33660057742915    2.93660902471106    2.00279253517285
H         4.55584674310798    1.26552608265199    0.05840564039139
H         3.29370354567773    2.12411843387974   -0.78534418653420
