38
 energy: -53.119908108489 gnorm: 0.160505371610 xtb: 6.4.1 (79825abcba525fcdf90b791dcacef51065a7a4e7)
C         1.11253493647431    1.12197734839659   -0.07970749446370
C         2.46760834982221    0.31093343643712    0.38817362133670
C         3.27521742818463   -0.43762365562295    1.70585922459204
C         2.36830184697609   -1.21738114693633    2.71951827071146
C         1.00860244420412   -1.13177524663532    2.07165605373452
C        -0.07575317372194   -2.01194675417802    2.67858286335821
C         1.15054180979257   -1.63945336226192    0.45579538840161
C         2.25917826366096   -0.95007297139482   -0.44835267551214
C         3.50851804439951   -1.75000264933949   -0.78015363778689
N         4.42238463328891   -1.11149189606895   -1.57824999399331
N         3.66722590490685   -3.03226556588921   -0.63337217379001
C         0.65202395188027    0.44245366258028    2.37129570877333
N        -0.56047686347105    0.91051502464187    2.40868125511139
O         1.69346528167353    1.15528110003693    2.77303574414930
C         2.21518417688772    2.40933569769911    2.23540954955350
O         3.40990113310242    2.23158314859958    1.43509660783798
C         3.44958732282170    1.44507786745375    0.20720018792548
H         1.45183722757684    1.66566487873117   -0.96710615709359
H         0.75169342233560    1.79122826571203    0.71693599834046
H         0.27979206935839    0.44173067820405   -0.22229378973746
H         3.83666289497871    0.34750449035911    2.21879004065954
H         3.94682395449688   -1.14138096510978    1.18822077936431
H         2.26642482027352   -0.96489247781039    3.77913975951420
H         2.86730774989087   -2.19475640513726    2.70586383925778
H        -0.79582357576272   -1.40103572445723    3.22058921858722
H         0.34863523410079   -2.73880633984833    3.39279234826941
H        -0.63341194508193   -2.56339523063889    1.91364040656797
H         0.13818941722690   -1.55463235644642    0.04595704391025
H         1.46091388447771   -2.67119906025026    0.69511778053202
H         1.81029795071028   -0.59885834080964   -1.39343076765482
H         4.20953293149651   -0.23490036937778   -2.01414799358101
H         5.11039550079763   -1.74307917438895   -1.97286758898150
H         3.10271982546831   -3.48654035852229    0.08154143904347
H        -1.38873552653225    0.33375219102609    2.26338526203757
H         2.77369949884524    3.00323966382465    2.96641935833436
H         1.46204726256993    3.06849664535535    1.79301110983229
H         4.51207074590695    1.19773022196965    0.15580444662200
H         3.22311644701941    2.13218235402029   -0.61546209077449
