38
 energy: -53.127354692230 gnorm: 0.158852403689 xtb: 6.4.1 (79825abcba525fcdf90b791dcacef51065a7a4e7)
C         1.10378136050237    1.05200502072636   -0.10235507794002
C         2.51971825230515    0.36231546251419    0.37970291817359
C         3.33674150508312   -0.36829431061678    1.70165141107834
C         2.39770999223728   -1.27235934881808    2.57280494476244
C         1.01780382214827   -1.11068546906674    1.98496417171548
C        -0.03007028306356   -2.07426525950556    2.52567015462728
C         1.09381690309880   -1.55944030523075    0.34736512445415
C         2.30269714290637   -0.90386647130090   -0.44676039302068
C         3.47953640986498   -1.83922324059417   -0.67256183188817
N         4.38110609506680   -1.22403082318527   -1.50233066147669
N         3.68268528829674   -3.07332323918549   -0.31667016375636
C         0.66862252527210    0.45230852881070    2.34586713244829
N        -0.49677968080356    0.93324231852612    2.66395158802196
O         1.70287233883324    1.19398202333442    2.71242654006872
C         2.12874145291976    2.49041404032069    2.19109652376588
O         3.33891708195630    2.38176628446326    1.40171956325149
C         3.50106420738299    1.50379124128528    0.24813242468888
H         1.17523424628754    1.38481866156512   -1.14270507440149
H         0.74440013825241    1.96002122892701    0.40665959061934
H         0.22059143908954    0.44661998111131    0.07088340438811
H         3.77335307357607    0.45268391415230    2.27620369172867
H         4.14580201133068   -0.94344066708015    1.22320915598469
H         2.47428837050075   -1.01006216244980    3.63217413534341
H         2.75974715783742   -2.30821213775278    2.55296033902263
H         0.35915633219719   -3.08478686036385    2.41238603236169
H        -0.88862128291362   -2.16986925450093    1.83844703557603
H        -0.38501292814767   -2.00782967859162    3.55999007867682
H         0.04341591083885   -1.45296928887227    0.05523312118114
H         1.33377535427630   -2.62320725825704    0.51743871791496
H         1.99350681138519   -0.71655972445974   -1.48951413262069
H         4.17098794605848   -0.36396500902291   -1.97122593390839
H         5.15842669162010   -1.78533866458334   -1.83201336401364
H         2.98619383451505   -3.45937916453799    0.31736031698027
H        -1.31931250480377    0.34432854270772    2.53589291103394
H         2.48606484306981    2.93979925354670    3.12351786381956
H         1.29087991660778    2.98663507944187    1.69191972905688
H         4.56597212151542    1.26420083683186    0.28364246424776
H         3.37280367365504    2.11340680189592   -0.65302957456319
