38
 energy: -53.135945483418 gnorm: 0.147860955624 xtb: 6.4.1 (79825abcba525fcdf90b791dcacef51065a7a4e7)
C         1.22022987270194    1.21410777898911   -0.00621837622480
C         2.59469102111356    0.40779305537585    0.41048539577687
C         3.19714964139892   -0.41291310737786    1.79336300770484
C         2.29542840221398   -1.35541342488186    2.66319875944104
C         0.94224835012064   -1.14421010789674    2.03063793786249
C        -0.14244299208716   -2.05617561005774    2.58800025632872
C         1.15024956157376   -1.58691916093778    0.40286837718765
C         2.26704501067338   -0.82485648457223   -0.43009755250192
C         3.42496760031074   -1.70600710489226   -0.87011815096866
N         4.12361478289028   -1.15357121419155   -1.91247731382142
N         3.77416610746375   -2.85532313288344   -0.37205766904047
C         0.57009058031223    0.42374011287790    2.34394209671939
N        -0.63437032111066    0.90832999291976    2.27264043622490
O         1.58490457637473    1.11036157142914    2.84675574609573
C         2.40013647029253    2.23758034510680    2.40104257465550
O         3.60510562133855    2.22222386673062    1.59651856896682
C         3.65531917530989    1.48180941109824    0.34066818443216
H         1.48438741120597    1.62803489334811   -0.98452492351955
H         1.00743520372515    2.03248296107740    0.69927771386754
H         0.41278560216760    0.51590587870454   -0.19876686887771
H         3.76160447793452    0.29921427761035    2.40082540350620
H         4.00487396402399   -0.95120334924344    1.27172685829183
H         2.36825308494637   -0.89708536005084    3.65393541039888
H         2.70342052805631   -2.37252000372315    2.60410256899152
H         0.13462225008801   -3.10559611656692    2.50176795431560
H        -1.10861195576067   -2.01426404729473    2.05575358707286
H        -0.30206538103983   -1.81870886537385    3.64551901798626
H         0.19810241710595   -1.53338788229181   -0.13617675844253
H         1.28551727803562   -2.67870150430644    0.49129444776409
H         1.79888856168058   -0.47664662892348   -1.36689918259910
H         3.62760525124993   -0.55635721485078   -2.54575103433158
H         4.82160328333431   -1.73717698336886   -2.35991541002541
H         3.23800492193963   -3.16396202874325    0.43627851794100
H        -1.31028295218340    0.21182178801696    1.95991507814126
H         2.72473105791258    2.60775840490371    3.37912395289816
H         1.69576993542346    2.98448729631416    2.02233089940907
H         4.64175855515887    1.01726721142402    0.27877071049466
H         3.57850565434127    2.18792742136874   -0.49340129015712
