38
 energy: -53.130656770309 gnorm: 0.148725201539 xtb: 6.4.1 (79825abcba525fcdf90b791dcacef51065a7a4e7)
C         1.24949835553776    1.26503052374742   -0.09112882270712
C         2.56161869393579    0.36254451801416    0.32933300450045
C         3.29507861363683   -0.38577448008296    1.68981847723359
C         2.36745232044152   -1.38288231595874    2.46654732439828
C         0.94903873127787   -1.14683869627783    2.01023319156199
C        -0.02474125228831   -2.11583346683795    2.66726501061343
C         1.09982768795205   -1.58088122476792    0.37384713938040
C         2.30205895156917   -0.93326728883266   -0.43673290773755
C         3.49702194319436   -1.83592269258486   -0.69770402785642
N         4.47164383753975   -1.25402537708431   -1.46667321356272
N         3.75102055955063   -3.07547912995372   -0.39784454195308
C         0.57053392325252    0.40474704864166    2.39029182026874
N        -0.62227635428444    0.89957203860538    2.54191374598246
O         1.57796466703723    1.19822000120369    2.72135376510984
C         2.10358396327480    2.46652086407275    2.22233199461430
O         3.30129349391991    2.40130376973891    1.40950730420128
C         3.55031187590385    1.50445239394312    0.28632316483012
H         0.86616443659230    0.71860073431341   -0.95869331904500
H         1.66462494802421    2.23773977575029   -0.39813186946893
H         0.45746569785467    1.27841215468249    0.64983829260703
H         3.53171155682083    0.35194298412590    2.46087167704486
H         4.21368317963479   -0.81688542110349    1.26018113744327
H         2.41274876440210   -1.22940537415510    3.54882280747497
H         2.67784180640055   -2.41609179684342    2.26507209706750
H         0.43701373101333   -3.06110831280600    2.94784005625947
H        -0.88314642204755   -2.30554063497452    1.99967432710193
H        -0.40604066802550   -1.64660437895856    3.58085710280111
H         0.22218261957095   -1.17456645739903   -0.14061072313672
H         1.05344579885986   -2.67951882632812    0.27924618359545
H         1.92689956147693   -0.69728814877952   -1.44746884249946
H         4.13728211997400   -0.46902426941090   -1.99174571181511
H         5.09060149608794   -1.93729202888900   -1.88860045120640
H         3.15469088824204   -3.48780953063085    0.31665440157586
H        -1.47461659743385    0.36498011918168    2.37606353454491
H         2.46309915542542    3.02845228444577    3.09067439736786
H         1.27432048112836    2.94220348639345    1.68991029346737
H         4.60233636389180    1.29242895323956    0.48876806006036
H         3.56920741686352    2.14136515434577   -0.60483335526152
