38
 energy: -53.133916387130 gnorm: 0.147049751513 xtb: 6.4.1 (79825abcba525fcdf90b791dcacef51065a7a4e7)
C         1.07592671818270    1.17663176012583    0.02721527174073
C         2.49327320692951    0.39473648337902    0.33167804215721
C         3.24914591580456   -0.41551277933956    1.64355380590088
C         2.39335374556845   -1.42775774720867    2.48081251389553
C         1.00961862144111   -1.14677569665915    1.94962285428904
C        -0.04370322860143   -2.03839751362020    2.59337182680895
C         1.03823036396869   -1.49160600948803    0.28554264747677
C         2.22296963854370   -0.83041474334238   -0.53969839118172
C         3.37172077558904   -1.77499408503366   -0.85429320690165
N         4.53373194289977   -1.18026738951675   -1.27362135292066
N         3.42454220567371   -3.04085461313720   -0.56148240832822
C         0.70270738659009    0.40623503036238    2.38446988524346
N        -0.50119601355117    0.84644490199489    2.60234417059488
O         1.75031972430546    1.11964373615043    2.76875420853805
C         2.28498739332132    2.40124662223151    2.31542213088356
O         3.50667498637208    2.25416548839213    1.55037838580460
C         3.48503968135403    1.53371190140029    0.28216165039188
H         1.21636408542506    1.61623443805696   -0.96536993161023
H         0.88037390622837    2.12858020181056    0.54518968461813
H         0.14099878846297    0.62691743226871    0.01137317569796
H         3.71266372331773    0.24174448580016    2.38376279912716
H         3.98565442994240   -1.07802480716816    1.16094397225215
H         2.56841570274031   -1.25928980984944    3.54753600608469
H         2.64276270130177   -2.48560513852434    2.32846492504610
H         0.35198722091679   -3.04135041055714    2.44171722358133
H        -1.01352905612627   -1.98474568525535    2.06888645334664
H        -0.09694860306483   -1.93558944283406    3.68278043417896
H         0.06817905068662   -1.23816170717230   -0.15580286262267
H         1.20366889598204   -2.58278211879928    0.27717621664519
H         1.73519189811810   -0.49215020740682   -1.47011110109087
H         4.59942377137392   -0.27136257874143   -1.68991720371314
H         5.31725534699783   -1.80230184440558   -1.43838995685066
H         2.55682290800233   -3.51128813286952   -0.31270602018241
H        -1.21675407185608    0.18479224295243    2.30239228067632
H         2.71031990983260    2.90008647511054    3.19251259160528
H         1.56537347942372    3.11540838640761    1.90365335412269
H         4.53334534156072    1.28690761559045    0.10095383004614
H         3.23556132832634    2.23024176010015   -0.52578732605754
