38
 energy: -53.131846768129 gnorm: 0.146197281600 xtb: 6.4.1 (79825abcba525fcdf90b791dcacef51065a7a4e7)
C         1.09405638333341    1.17410464137924    0.00573262006396
C         2.48436465324391    0.33102109226596    0.26875722909366
C         3.26350455032049   -0.34471215058202    1.64177983583094
C         2.41118246750760   -1.38825316595268    2.44339788290611
C         1.00665797859888   -1.08843186231230    1.98160307679941
C        -0.02994161762053   -2.06106413313229    2.52780532238789
C         1.06110020224166   -1.51001554945980    0.33594430071103
C         2.27214084768181   -0.95471091906325   -0.52824385554229
C         3.49448237146270   -1.85032190773653   -0.64903873429790
N         4.48933236401754   -1.35873823041012   -1.45428708021443
N         3.74890890402822   -2.99972737805895   -0.09671150518056
C         0.68105193246773    0.46346257785237    2.40673030649729
N        -0.50870586991705    0.98134765174952    2.48984939563582
O         1.73343429122395    1.11542929692746    2.87742005224630
C         2.19539431396774    2.38015687252456    2.31090211393461
O         3.29007551524728    2.27505261060028    1.36746608589439
C         3.40085680369723    1.52344637461970    0.12219072054252
H         1.11051933744248    1.24643368306509   -1.08637362094866
H         1.05124420850144    2.21742649414405    0.35557667787090
H         0.18024921186214    0.63283795534736    0.22599130379437
H         3.62508804946735    0.39499532923375    2.36069252355949
H         4.20735778486176   -0.80335449846687    1.30552472509418
H         2.51062083742181   -1.11347537042847    3.49769211895634
H         2.71154549886543   -2.43856047456535    2.33807773574397
H         0.19605587748056   -3.06186095960181    2.16336684121540
H        -1.04022906129216   -1.84706894631100    2.13786826397403
H        -0.02566123448019   -2.03046105507647    3.62291299883084
H         0.06582254218546   -1.21956265161636   -0.01772071001155
H         1.00639411022721   -2.61228117456039    0.32485622872257
H         1.82115926659617   -0.85640832822515   -1.53072580467700
H         4.30867717371600   -0.52473545546987   -1.97919535072747
H         5.45794372160222   -1.65384697098765   -1.50612674971211
H         2.95323795473746   -3.27141529123754    0.47707207697762
H        -1.21446729714994    0.46330461831187    1.96705790826712
H         2.67330622295134    2.81481111885421    3.19504719593450
H         1.40974226302292    3.04751241689266    1.94373432914691
H         4.46656032599125    1.30833327945800    0.01877042973955
H         3.04693139357058    2.23506206412498   -0.63180846303142
