38
 energy: -53.121364336182 gnorm: 0.148432344456 xtb: 6.4.1 (79825abcba525fcdf90b791dcacef51065a7a4e7)
C         1.24460912389740    1.05169396102953   -0.14845648543378
C         2.62507121586470    0.29447991111062    0.33515515318799
C         3.21486483921015   -0.36241401424706    1.80807720008627
C         2.23793208044203   -1.27669406359388    2.62521652065946
C         0.86360470783617   -1.14457815666523    2.01726423247800
C        -0.19167976192223   -1.94121575684065    2.77266637565525
C         1.11517743863168   -1.62988505021606    0.40789232100405
C         2.34979289578997   -1.02372517730533   -0.38589524622698
C         3.62124543439959   -1.75141846289297   -0.79172792948576
N         4.15725394742627   -1.20522490686179   -1.92934535190264
N         4.25442918502021   -2.77267010506610   -0.29468207210987
C         0.52008009168480    0.43341134928253    2.31233851548970
N        -0.67295605882715    0.89813038662168    2.53891819720702
O         1.58364945598918    1.11124828177837    2.71665943261462
C         2.11292248215257    2.35442662330149    2.16144490824080
O         3.38710370483752    2.23994276370503    1.48115008402591
C         3.63280364471322    1.41989499960931    0.30002842498914
H         0.92649278572653    0.73133973487393   -1.14563937900904
H         1.25093195046038    2.14631441383574   -0.26891530431533
H         0.38547320667130    0.78125779534883    0.45592486934453
H         3.70129362530942    0.42813834587545    2.38527668557087
H         3.94807105056100   -0.98950273475861    1.27567919504928
H         2.27305468232142   -0.93359751414326    3.66347387281263
H         2.57139255028892   -2.32136632738139    2.66903107144601
H        -0.02854952191534   -3.00764564363357    2.62569566780942
H        -1.21386415717539   -1.63385510299147    2.49125197332112
H        -0.03879977425024   -1.70172890043602    3.83072566355837
H         0.19473110810601   -1.41206203346735   -0.14469353411935
H         1.21272130347938   -2.72737636554855    0.34383599514764
H         1.98206626394958   -0.73394695412821   -1.38530686060160
H         3.98549197010422   -0.21858057784079   -1.95684839355573
H         5.02556912047143   -1.63431798863599   -2.22916593122164
H         3.81557970426680   -3.15824909818386    0.53890904465446
H        -1.38998591767880    0.20813529763972    2.31631163305608
H         2.53417257347642    2.78818783818978    3.07437218207241
H         1.36250060494878    2.92388677111462    1.60466227181415
H         4.70973290661038    1.25710447295452    0.38012840361045
H         3.45810363831540    2.00426300301845   -0.61000937682390
