38
 energy: -53.129251186025 gnorm: 0.151309631084 xtb: 6.4.1 (79825abcba525fcdf90b791dcacef51065a7a4e7)
C         1.12141925852602    1.20037373287604    0.05203317006540
C         2.52370392360668    0.37816233669308    0.31754218774434
C         3.29273209013790   -0.42414171071720    1.62665233510931
C         2.43549196900478   -1.46318707273546    2.42886576857297
C         1.04261256263993   -1.10208085287270    1.97573714546155
C         0.01317698184396   -2.00103818112582    2.64732277502956
C         1.07967213216810   -1.48401240596518    0.31994596916839
C         2.26781850543276   -0.86488820620139   -0.53257808988577
C         3.40362099549311   -1.84330127619444   -0.78454998605695
N         4.42846932444124   -1.23688706279556   -1.46407455009473
N         3.35918553966074   -3.14053504266032   -0.70618405400407
C         0.72373426275237    0.42561715589714    2.48523122118123
N        -0.45362955742785    0.94898092147752    2.65999433619346
O         1.78968045554835    1.10414373547108    2.88206677001990
C         2.21950411094383    2.37439872130053    2.30276601242796
O         3.40268505092021    2.32769028466660    1.46769322349252
C         3.47917251100461    1.54612281546410    0.23838564543371
H         1.06397033931238    1.12859441817392   -1.03872157427071
H         1.11284872857351    2.27578913665293    0.28899833979454
H         0.13152507865706    0.92399377241237    0.39880497331151
H         3.72753769764944    0.31639664773333    2.30288621711731
H         4.09619894816290   -0.82451653629397    0.98757468219190
H         2.47218579572452   -1.23325394133136    3.49784260641019
H         2.71947691303376   -2.47724976250242    2.11985906435702
H         0.36850051478562   -3.02908659094809    2.69576053162728
H        -0.93184158846472   -2.05715732649731    2.07959386927737
H        -0.11497387450160   -1.70580891356175    3.69452511025056
H         0.08898274931513   -1.22061307994960   -0.06628554317383
H         1.21498620293083   -2.57933909899620    0.31254645006377
H         1.91709112803648   -0.66134737464313   -1.55901819667456
H         4.48046815358315   -0.23728619861466   -1.42141476834705
H         5.26658743420353   -1.79661680718455   -1.35341677559483
H         2.50100003363717   -3.55159094573964   -0.34468044847660
H        -1.30494012912504    0.41049760080271    2.50161274087295
H         2.62307318969632    3.00712032556338    3.10015675600683
H         1.26772254622671    2.73357486583034    1.89961702759955
H         4.53108855112789    1.25838099474779    0.29644330165025
H         3.19601617152944    2.05930929626847   -0.68716120903616
