38
 energy: -53.124749927478 gnorm: 0.138798092146 xtb: 6.4.1 (79825abcba525fcdf90b791dcacef51065a7a4e7)
C         1.06499881157094    1.02155561785715    0.05186687977581
C         2.49928146846325    0.30602962121548    0.43105643551252
C         3.23727476448236   -0.42866939492469    1.79650461476744
C         2.24319925426042   -1.35071159627335    2.58369857757624
C         0.88198972336865   -1.10641706151274    1.98098382249017
C        -0.22430646315310   -1.88439431163406    2.68080470407562
C         1.19785338091720   -1.69219528893660    0.41701978514411
C         2.30585667028679   -0.93772788826511   -0.43439754714828
C         3.57060230229115   -1.72622458721556   -0.73359763708642
N         4.29046708001408   -1.14790148016422   -1.74707827581348
N         4.10242775473637   -2.75096029682594   -0.13525862232860
C         0.58281181070562    0.46187194076072    2.36320225454281
N        -0.57530449497832    1.04855862110836    2.29107267856534
O         1.69192489370841    1.08342021513630    2.73423317293752
C         2.29035829645001    2.32036336724761    2.23851697044615
O         3.48943898470711    2.15875556811845    1.44131323562728
C         3.46832161106933    1.43661579200460    0.17404713631399
H         1.28423148578920    1.49236886827226   -0.91170485107030
H         0.70328664228871    1.90004869885371    0.60878558822900
H         0.23225211934900    0.34418133840529   -0.10377403128785
H         3.63343300415839    0.37505148826688    2.42247316692031
H         4.07381846498561   -0.99450136436267    1.35570074298041
H         2.23365696518098   -1.21039339367336    3.66866258586482
H         2.65525017073968   -2.33601956367091    2.33103678149210
H         0.13087800977947   -2.91254336470397    2.63349636805701
H        -1.20855915861124   -1.83171664574258    2.18381652130469
H        -0.25695888953746   -1.62844394354880    3.74552951005291
H         0.25972100066440   -1.66643314844071   -0.14801417818926
H         1.56513813973742   -2.72869212156153    0.51126105197702
H         1.77997127556286   -0.82489766768599   -1.39810483658773
H         3.98885263425550   -0.28829510530542   -2.16400899408051
H         5.14804002804391   -1.58580104041505   -2.06456386561311
H         3.46186573224612   -3.16159150420122    0.54090443773329
H        -1.24141015432627    0.48609402338226    1.76219127622601
H         2.56530460514960    2.89401903485391    3.12978591067097
H         1.54238970228362    2.97909780959089    1.78681279677003
H         4.51015437151291    1.12181244761704    0.08362171045578
H         3.17145851845759    2.01724901183769   -0.70624385115228
