38
 energy: -53.121113981759 gnorm: 0.153019985844 xtb: 6.4.1 (79825abcba525fcdf90b791dcacef51065a7a4e7)
C         1.27467349995196    1.17408885381182   -0.18366118183450
C         2.62409269365142    0.37762427416313    0.32392220735516
C         3.32213093269186   -0.36174232908394    1.70773761604185
C         2.41195229803138   -1.36574398167613    2.49613965624743
C         0.99521159419655   -1.15716440451379    2.02161190638983
C        -0.08902866981791   -2.08803960749920    2.54771410071060
C         1.07705062592009   -1.49685260475709    0.35824068828392
C         2.31298353036236   -0.90536794438766   -0.44451677001186
C         3.47563897439708   -1.85152115323825   -0.69721347167414
N         4.26928149474942   -1.34685592197426   -1.69483586880536
N         3.77787787131438   -2.93886922067335   -0.05125916422432
C         0.66779109783028    0.40714637796161    2.39692025483127
N        -0.57973692008231    0.77142308035978    2.43709079787481
O         1.62004756161145    1.19954668824146    2.86535104788166
C         2.06200629058072    2.44811693641945    2.24920961352438
O         3.24897076403725    2.46474533738974    1.41837618299121
C         3.56700456629821    1.55839657851931    0.32052302274166
H         1.01071146319217    1.00771739284409   -1.23287189872055
H         1.37736060903844    2.24972289220563    0.02896762493036
H         0.38884850037685    0.81905926473619    0.33189203547748
H         3.80605692576674    0.35789272657552    2.37308432399866
H         4.16552827077694   -0.92267738741639    1.27378828911746
H         2.49260230224474   -1.34909631430319    3.58707758766429
H         2.75758666857967   -2.38564075391316    2.28447205215042
H         0.36000069920059   -3.07682352106760    2.62622241284753
H        -0.98091156134477   -2.02282003509211    1.90055347331234
H        -0.44571843040826   -1.86511673610181    3.55929379980263
H         0.13485323463797   -1.17672516988303   -0.09980071408418
H         0.99457996061655   -2.59004155044299    0.23079774651551
H         1.82680001251109   -0.74953483177068   -1.42296424417232
H         4.45155750242903   -0.38538056126709   -1.90946624023067
H         5.04744050496879   -1.99681958179299   -1.69537417362566
H         2.99000886882122   -3.27212598483194    0.50040788836238
H        -1.16324721083870    0.00683232905554    2.09842364388058
H         2.43168225014346    2.99703515138991    3.12160006745158
H         1.25941620139955    2.91940029929662    1.67373947283016
H         4.61937865245465    1.38853677780586    0.55790417115294
H         3.43238654608353    2.16651605629774   -0.58072251815395
