38
 energy: -53.123201387070 gnorm: 0.172210884891 xtb: 6.4.1 (79825abcba525fcdf90b791dcacef51065a7a4e7)
C         1.17610786562545    1.24048674506665    0.00999115717286
C         2.57102919007672    0.42753653179836    0.33592878764792
C         3.23777348832382   -0.39323200989062    1.68894634013663
C         2.38456325896327   -1.44556801520501    2.47802396776828
C         0.98336573130028   -1.13962568623476    2.01017670936148
C         0.07799369683190   -2.20724822993639    2.60965373566401
C         1.00287203923019   -1.54528224231533    0.35973682931622
C         2.20461770991668   -0.85229148415082   -0.41316352606360
C         3.29010892505287   -1.84036059231157   -0.80845768466669
N         4.41598266709763   -1.16803288769628   -1.20869471845396
N         3.39204683170104   -3.13562740577136   -0.75531930140366
C         0.70575329603151    0.42831466672041    2.40970535948456
N        -0.48736986821784    0.93781674951287    2.49631987380779
O         1.76996194049535    1.10585851220118    2.81283353874578
C         2.33379115313452    2.38537400334170    2.38995984497480
O         3.28122375615223    2.51211864008500    1.30103716330764
C         3.56563665545374    1.56041968845402    0.23273311247973
H         1.18614688943797    1.28410844405439   -1.08371580701773
H         1.04715691456314    2.27384002305857    0.36817670431347
H         0.27433006794879    0.67213204787407    0.21073178689223
H         3.62662883071186    0.38002697968028    2.35648457346052
H         4.17163768925304   -0.79561789379418    1.26437304312252
H         2.60549888436079   -1.14418309858746    3.50626602947907
H         2.81800206433563   -2.42454309926092    2.23678900262893
H         0.40172677318776   -3.24599990247536    2.56870980526638
H        -0.92326929559779   -2.03758867183730    2.17697184174467
H        -0.05152347714549   -2.02065183148600    3.68139193825912
H        -0.00804592999480   -1.30829659355684    0.01059203022607
H         1.02073226734756   -2.64762029921575    0.30838491077854
H         1.76634111156793   -0.65298734440988   -1.40624425153135
H         4.26684065385677   -0.30374015149750   -1.69292642534484
H         5.16533628309119   -1.73343688237165   -1.59180301644263
H         2.65463164922593   -3.66459759688226   -0.29429484259095
H        -1.20341132090399    0.26579908018845    2.22162803728798
H         2.93000109924145    2.82265395274489    3.19764577595686
H         1.49930629374375    3.02092182694474    2.07828898366174
H         4.61010487506352    1.28661611667500    0.39647415086950
H         3.38815696068744    2.12005041730362   -0.69219350371975
