38
 energy: -53.129836808246 gnorm: 0.151088033748 xtb: 6.4.1 (79825abcba525fcdf90b791dcacef51065a7a4e7)
C         1.13486025137533    1.22911111979404    0.01752862032800
C         2.52048972149243    0.38125270675646    0.28973442063860
C         3.32805999947866   -0.40081267532286    1.58783667885194
C         2.38854010300038   -1.37609895126103    2.37786282930155
C         0.97518074281466   -1.10135350867430    1.92756677055475
C         0.10542690968260   -2.16809957756063    2.57908057040531
C         0.98429914693654   -1.40772311137363    0.25575815479261
C         2.26412029648132   -0.88482309681742   -0.52554666649877
C         3.39330888320664   -1.87129278446688   -0.77582636901093
N         4.50097872942025   -1.22238448587835   -1.25727360996273
N         3.49727379025605   -3.11293232250767   -0.40373267688401
C         0.63504785707599    0.39541439710349    2.50991050413907
N        -0.53724619493818    0.86874771985139    2.81375183109255
O         1.72812316235474    1.07697174888617    2.81778060467055
C         2.20811851229513    2.35086177039286    2.28797485529400
O         3.35187683395669    2.35625475075675    1.39846196507141
C         3.47119516531522    1.55133037507747    0.18777825779876
H         0.90463790560644    0.95151572434030   -1.01597852989530
H         1.38865144848061    2.29625910758725   -0.08009025254541
H         0.29599489487671    1.09980705060171    0.69288958502978
H         3.76894438092870    0.36322181610882    2.23329581397361
H         4.16060320166645   -0.85510895953692    1.02679662949909
H         2.57525517618844   -1.24752130650364    3.44815831393509
H         2.65962705200151   -2.41309083454748    2.14203359040167
H         0.37642581010784   -3.18072119504489    2.28473109746212
H        -0.91821677934481   -1.98427211010165    2.20909863780501
H         0.08532887031652   -2.10225467202218    3.67245891546209
H         0.11508421604104   -0.84954830170452   -0.10883164737417
H         0.81345288107024   -2.49654142592957    0.19752217518218
H         1.98144193389547   -0.60250724562659   -1.55433651562554
H         4.52148374324459   -0.32843147241669   -1.70910672938350
H         5.24579588476941   -1.81791942450925   -1.60161360263304
H         2.57388615691903   -3.39945059712403   -0.08530413246470
H        -1.29330234895863    0.21185845179908    2.62229872256272
H         2.69960001611214    2.96312690273218    3.05126638823692
H         1.30561239090605    2.93928929582586    2.09650555792264
H         4.54648531071970    1.36070166663432    0.19803484871371
H         3.20806727001483    2.09221382801649   -0.72785466681833
