38
 energy: -53.129688379340 gnorm: 0.143798937076 xtb: 6.4.1 (79825abcba525fcdf90b791dcacef51065a7a4e7)
C         1.13986976588428    1.04854953444894   -0.16671689262991
C         2.49928506503296    0.28991661714165    0.37123761485974
C         3.30507826716389   -0.32721630390254    1.75641260241531
C         2.38488789905327   -1.34235143225948    2.51849699985792
C         0.97332577207911   -1.12313677124343    2.03344692659679
C         0.00360157301438   -2.01911079401425    2.79223191729187
C         1.09256723822979   -1.69107514860311    0.43591226557968
C         2.26169741718531   -1.00984355328018   -0.39526880524705
C         3.49403089737574   -1.85653846922781   -0.66966116701017
N         4.36402843425001   -1.11386137347668   -1.42553215284425
N         3.76816131522497   -3.10662131895116   -0.43927768454069
C         0.63835501789705    0.44920102670215    2.36612875819546
N        -0.52192664777512    1.03093992395767    2.28890417849483
O         1.70746847848556    1.12092011767462    2.76601363807238
C         2.13322191972962    2.41428372566568    2.23702399067886
O         3.20882504434984    2.40662212058687    1.26621783640881
C         3.40816141094876    1.47825458348308    0.15883628991606
H         1.42295008123468    1.30130906559459   -1.19344797536705
H         1.01890288883787    2.06945640784141    0.22807471205922
H         0.24146685329363    0.46951115504754    0.01798239107062
H         3.63944075253109    0.43697718692178    2.46278026053472
H         4.20855842985238   -0.77513262026403    1.31214489074293
H         2.40526736358573   -1.10450443544187    3.58617702956169
H         2.70488141338011   -2.38649385427434    2.40974739442399
H         0.20402265465984   -3.04179436457263    2.47689992916015
H        -1.01367232535234   -1.59596147706877    2.72423162651915
H         0.25800305046201   -1.91548940986807    3.85277809445539
H         0.20483978705814   -1.52599793623899   -0.18433681124997
H         1.33892375951305   -2.76378792099613    0.35405281351345
H         1.87151699125845   -0.77654297906159   -1.40092676403649
H         4.23829102579123   -0.13046670752296   -1.28113457493830
H         5.22238079378625   -1.54635658882244   -1.74827602198077
H         3.00138270784686   -3.59668977916837    0.01681183500846
H        -1.20435945057981    0.30214859464409    2.08171492977380
H         2.58494554190339    2.96595483132200    3.06807235742762
H         1.30235324554639    2.99847397752136    1.82983393300724
H         4.48342676382258    1.29402386520810    0.20940172095529
H         3.23738595038308    2.13622320108353   -0.70028412707652
