38
 energy: -53.125246366546 gnorm: 0.155860056882 xtb: 6.4.1 (79825abcba525fcdf90b791dcacef51065a7a4e7)
C         1.27341219714012    1.23230366447595    0.05948428391626
C         2.59477517078598    0.32162217523445    0.43041290066298
C         3.23041088790685   -0.52324353080895    1.78357019398780
C         2.27908542846897   -1.49446872616877    2.56441830874783
C         0.94503675485197   -1.16831339829814    1.94010015669586
C        -0.21469173683303   -1.89570197860934    2.60705206933909
C         1.11770757875854   -1.67485317533650    0.32687611408550
C         2.26413377501607   -0.88869376949849   -0.44088960911044
C         3.47643099087743   -1.69646170806542   -0.87525774157525
N         3.99712796216215   -1.35035438329539   -2.09545867096780
N         4.11944140931921   -2.67815237909364   -0.31512186854435
C         0.66589554573909    0.39198161283569    2.36752091775455
N        -0.46013437361496    1.03943589734830    2.30838595186788
O         1.69246567557940    1.03195966935930    2.90668688436244
C         2.24172010763091    2.32382864852740    2.50260819225385
O         3.38362006902973    2.30560736309830    1.61088074458273
C         3.54225854015026    1.49848500420757    0.40618887773730
H         1.53565339673427    1.48193112559940   -0.97352793752965
H         1.23931502496883    2.17643095227507    0.62535113164327
H         0.33778716940061    0.71715342571191   -0.12960062482335
H         3.77653246654643    0.23132512644183    2.35551652411425
H         4.06052854090331   -1.06943813585835    1.30727682233984
H         2.38864522275182   -1.20351385233931    3.61335542633069
H         2.55764125316791   -2.52417227680468    2.30640088962508
H        -0.09634918474810   -2.97183875302377    2.72285037003349
H        -1.15842212365406   -1.82767040379712    2.03848348416164
H        -0.40573308527415   -1.33929307832004    3.53124254766763
H         0.13760724035218   -1.52626426159686   -0.13932567154363
H         1.28934697136711   -2.76215542093471    0.40699449095431
H         1.84214694579985   -0.55040589642364   -1.40292198209464
H         3.49922273247692   -0.74992751513367   -2.72419039243454
H         4.72337516393377   -1.93577979976591   -2.49273259785150
H         3.82621302354071   -2.96695206533177    0.61587009115099
H        -1.17762281802774    0.41891072408419    1.93430365712850
H         2.55597302557236    2.73784597980000    3.46638793092131
H         1.41783041006203    2.99365814565383    2.23811062550228
H         4.51610283466018    1.00734438094346    0.46188076804272
H         3.45779061566241    2.18859120908267   -0.44044767052680
