38
 energy: -53.121320897521 gnorm: 0.156881108292 xtb: 6.4.1 (79825abcba525fcdf90b791dcacef51065a7a4e7)
C         1.19622242989836    1.12682554162375   -0.18799843471484
C         2.54622264074691    0.34260706573702    0.33681556413209
C         3.31963584460170   -0.28992456154281    1.73345482793997
C         2.43375570901909   -1.31546163844092    2.52181537818580
C         1.01262208588135   -1.13608344162707    2.04848783931685
C         0.02911245348656   -2.03724663606547    2.78299640713961
C         1.05784255233502   -1.68798609469379    0.44155034490771
C         2.19762543596372   -0.95630911121667   -0.38751394401607
C         3.41999670706384   -1.80672454571305   -0.69317931785179
N         4.45556640748593   -1.06601963523240   -1.20186149539403
N         3.67064963420100   -3.07085581927489   -0.51975382672527
C         0.59924481810277    0.43176297974140    2.30559797226735
N        -0.62527808684848    0.85216821896777    2.42576630961432
O         1.63903911936502    1.12951311007037    2.73698018779718
C         2.22580296420498    2.38243737843983    2.26817914854089
O         3.19264275405253    2.43299737981296    1.19016715272513
C         3.48234806988495    1.50535813402509    0.10230162051175
H         1.45413503073553    1.25398424683600   -1.24417565415563
H         1.06332164335283    2.07823448167489    0.35042765436086
H         0.26915748529864    0.56462064872915   -0.15632335598994
H         3.54461505505712    0.52229795547614    2.42946070100822
H         4.27394245479762   -0.68919433655655    1.35376841814251
H         2.53795638414593   -1.29682938617118    3.61072410139217
H         2.88907679235214   -2.26562440463488    2.21468485839300
H         0.28183829899122   -3.08691580202480    2.64225250337312
H        -1.01147501449826   -1.91409463676793    2.43581220388428
H        -0.05510303286974   -1.77606488346250    3.84361298871272
H         0.11689263916226   -1.76275855912158   -0.11436490256740
H         1.25786031728381   -2.76759608275651    0.55353417029266
H         1.79705268690635   -0.66816483244175   -1.37469791816470
H         4.23804964860704   -0.15897531053817   -1.56748790990863
H         5.20102474440168   -1.60256276751900   -1.63127717509700
H         2.96798992701909   -3.69181356390373   -0.12375510475495
H        -1.38057840411554    0.27606330767379    2.05508683820185
H         2.77063625318168    2.73617305153568    3.14969170380439
H         1.51522703083716    3.20167684875482    2.12205155661390
H         4.52585050681665    1.33351103912389    0.37481701569540
H         3.27514450262162    1.97662784905403   -0.86472805269785
