38
 energy: -53.126613878125 gnorm: 0.142056708962 xtb: 6.4.1 (79825abcba525fcdf90b791dcacef51065a7a4e7)
C         1.06183909221397    1.04138690066178    0.00079768988935
C         2.48691401977752    0.29469177905654    0.35369535422816
C         3.23537552520856   -0.47179396227888    1.69577227483764
C         2.30766106388763   -1.42241513352689    2.52865134399236
C         0.94308776933195   -1.09222748337872    1.97660774767424
C        -0.19801943734187   -1.89230080159735    2.59032280522484
C         1.15193661466777   -1.64444772762844    0.38276820380890
C         2.29487352528362   -0.96642014806448   -0.48658653134236
C         3.55391740474488   -1.78972819343802   -0.70522238758685
N         4.30007968675535   -1.22720103236456   -1.70852243211465
N         4.12868269963918   -2.80336371044473   -0.12805770952440
C         0.67078713309713    0.48408962978977    2.34566804623070
N        -0.49014300609800    1.06832343196548    2.38503075584799
O         1.70789375803947    1.10293690188997    2.88931863220326
C         2.21233446398213    2.35852080562284    2.33892413180086
O         3.27405798407176    2.33532663935018    1.35320075792535
C         3.38355412622680    1.49625018989261    0.16498509317150
H         1.14165588443802    1.18914877910555   -1.08086504361384
H         0.95002687710939    2.00772372335171    0.51697151264451
H         0.26830707029914    0.30801690408558    0.09567890395768
H         3.78753943328107    0.19401390304452    2.36402382830750
H         4.17986477766001   -0.83778556137138    1.26187201704122
H         2.39480402624708   -1.25496382018548    3.60628454553512
H         2.58851074568468   -2.44695399110371    2.25315303490526
H         0.11376546529627   -2.92389244881744    2.74554331775863
H        -1.09500473662823   -1.84689115220290    1.94854332252595
H        -0.45561851105749   -1.44927629129077    3.55861392534895
H         0.25547107743539   -1.65271974239522   -0.24675585629189
H         1.42515929689586   -2.70119206977740    0.54631015512575
H         1.96963623032247   -0.84019593030969   -1.53363285257257
H         4.10020654843207   -0.30777697481197   -2.05266739315344
H         5.22910861275793   -1.62588656897444   -1.63145366698328
H         3.52218219758338   -3.18403863543713    0.59539092241638
H        -1.20992303644065    0.39676156085190    2.11913589231366
H         2.72157932660474    2.87433679762548    3.15967997857156
H         1.30271070586164    2.86413490350302    2.00074702544184
H         4.45182210881425    1.29217629353732    0.06573409510824
H         3.00676349493543    2.06704024512066   -0.69082001782585
