38
 energy: -53.130894329673 gnorm: 0.156326943149 xtb: 6.4.1 (79825abcba525fcdf90b791dcacef51065a7a4e7)
C         1.09686805207883    1.08892794442953   -0.08774107861904
C         2.51345350827291    0.36030302264576    0.33097156266696
C         3.25396876882594   -0.29297368556113    1.73586734908446
C         2.39749587020950   -1.31685019107499    2.55815279390370
C         0.99903741915160   -1.13404273186569    2.02267945124583
C         0.00281991581306   -2.04634755843987    2.72563019600588
C         1.11838458548624   -1.61496854408091    0.39683930495367
C         2.29029702836994   -0.94136359057328   -0.43663620505845
C         3.47346931921778   -1.85925696995844   -0.69817840456321
N         4.47102541704954   -1.22515756249985   -1.39287667894496
N         3.62889172504615   -3.12463537602676   -0.44206802189176
C         0.69402117669077    0.45583992087169    2.29538273889205
N        -0.51657635054528    0.90180218871717    2.45727363103148
O         1.67498185491863    1.18111467643773    2.81095112256869
C         2.14451645732235    2.43638567079580    2.22981648672893
O         3.24903967337798    2.45267160962693    1.29215524245011
C         3.44029746024174    1.54259419088937    0.16828927729876
H         1.27707915181633    1.20154643002110   -1.16153789341225
H         0.89340565339012    2.12196480351211    0.23503149902899
H         0.17000321717798    0.54343819888064    0.05328932220342
H         3.76484071542858    0.51421625068716    2.26709187446902
H         4.02316679270113   -0.86382923659197    1.19113109941352
H         2.39068759065983   -1.29816394310260    3.65201367623957
H         2.83914019575075   -2.28983008283009    2.30772085847879
H         0.56508328794216   -2.88454515282363    3.13400411785345
H        -0.78063415658148   -2.48351143898972    2.08250266184642
H        -0.30208402264542   -1.45226663082262    3.59414452516635
H         0.17984153397028   -1.66529166035442   -0.16585417652922
H         1.19656086506576   -2.70917305187006    0.51812482103423
H         1.95040816071027   -0.58913923534036   -1.42579312630831
H         4.35072492919956   -0.24273526942987   -1.54811794595049
H         5.32629793987980   -1.73885189015713   -1.57346332542949
H         2.89140677497455   -3.61550788986450    0.05922460358925
H        -1.26419750557054    0.27253902509164    2.16595044781854
H         2.63673024945233    3.00916926463494    3.02271066010548
H         1.30041089535929    2.99637161667245    1.81590068299856
H         4.49341922515257    1.27355975055056    0.27434783294705
H         3.26009413383163    2.09201175884764   -0.76221700807519
