38
 energy: -53.132520788737 gnorm: 0.141790063234 xtb: 6.4.1 (79825abcba525fcdf90b791dcacef51065a7a4e7)
C         1.13742308673012    1.13334983365997   -0.14300939086273
C         2.51956730315265    0.39577480395011    0.36550741889927
C         3.34151577991210   -0.28663527328006    1.70997112654795
C         2.48219001948166   -1.23456011022732    2.61607267496577
C         1.09492151558773   -1.14652321329444    2.02992261065814
C         0.00709052960684   -1.99744719876877    2.67135949933164
C         1.18013346587910   -1.60464336972819    0.39537239715374
C         2.34558217022400   -0.90124889990500   -0.42241081523004
C         3.46807619039053   -1.88066996947470   -0.72501747518967
N         4.45531075266629   -1.33587186962575   -1.50499752053470
N         3.49893660954769   -3.16361010283821   -0.51515224382154
C         0.66821797902566    0.39285167284963    2.40857532544641
N        -0.47425055979876    0.98378198712497    2.21830087299624
O         1.58858162382698    1.13833909304114    3.00127874932517
C         2.05431834497976    2.36701149227984    2.36304765777596
O         3.20617719003794    2.32700160220615    1.48494414004246
C         3.43764344025790    1.59014463464464    0.24746268795770
H         1.42674674371300    1.24635274838240   -1.19263824319703
H         1.09792674841417    2.18324473852741    0.18699813602473
H         0.20173724180842    0.59507905422647   -0.03678497692984
H         3.74358650839872    0.51367296576917    2.33654202211563
H         4.20391849445562   -0.83030800669884    1.29168802996707
H         2.50966269036558   -0.95252668055200    3.67277961391335
H         2.85382975823710   -2.26684521366761    2.58910789031215
H         0.30561867965643   -3.02959738297795    2.84751710925237
H        -0.77485326581289   -2.00269283429747    1.89221768689198
H        -0.30693463754873   -1.49305219560411    3.59178851458853
H         0.21441806819886   -1.50405632959146   -0.11187059768024
H         1.35327154845099   -2.69446953158987    0.37518954146365
H         1.90862172840436   -0.77522608973858   -1.42799605544972
H         4.20547404961192   -0.46876155489423   -1.94022958183708
H         4.98834868793550   -2.02383128935916   -2.02515796430505
H         2.93790708268046   -3.53726160580430    0.24758270265466
H        -1.11147550046495    0.37724483351458    1.70270822798660
H         2.38647870907922    2.93429242152525    3.23877505430342
H         1.14878515877804    2.77234367025667    1.90137653011210
H         4.49990050269503    1.35077569721689    0.33116362569181
H         3.31133707826444    2.26057619001675   -0.60970886787204
