38
 energy: -53.124890134613 gnorm: 0.155267275360 xtb: 6.4.1 (79825abcba525fcdf90b791dcacef51065a7a4e7)
C         1.28099170710247    1.31636263054248    0.01723710090441
C         2.60499194089914    0.39996944254892    0.36390093211299
C         3.32573167663648   -0.46461052601482    1.66078226049250
C         2.35547140513345   -1.37661363306559    2.48834954234142
C         0.95790653342700   -1.12413830892497    1.97952253087076
C        -0.03454652237254   -2.05757940644993    2.65967971593910
C         1.07567497183873   -1.49838969489079    0.32575227690932
C         2.28323868193356   -0.84004412322997   -0.46808323307077
C         3.38954391120369   -1.80929850146985   -0.85209353065546
N         4.22371191224055   -1.31753129239997   -1.82272974712838
N         3.63392719780611   -3.02880947901327   -0.47261897805676
C         0.57115198361425    0.42694171512905    2.35328781718046
N        -0.59467452321969    1.00243781697579    2.33625426524103
O         1.63030316956840    1.01189559239309    2.89193965137523
C         2.28683073346363    2.26234990714739    2.51881631090907
O         3.27847605107782    2.34613529963330    1.46569479170685
C         3.54564143170283    1.57752579991517    0.25501017170868
H         1.47125705478660    1.63485142504812   -1.01259907306322
H         1.18215701900132    2.23733796549779    0.61287153244199
H         0.45863351975696    0.62375936978368    0.16060656891637
H         3.89030132408909    0.19796689827763    2.32184012633060
H         4.05350005399626   -1.16047477310547    1.21311567514270
H         2.40557623720037   -1.24311886660184    3.57305955350097
H         2.60742114131414   -2.42568981438964    2.28731166913334
H         0.23209956469673   -3.11280387400453    2.62991824265607
H        -1.01296940368996   -2.05313453934113    2.14860782582982
H        -0.11032309750352   -1.95488962808534    3.74776445915285
H         0.06602162988997   -1.27481234353359   -0.03567922530852
H         1.18449047784067   -2.58568836535178    0.48082001848963
H         1.75747171216700   -0.47795703818180   -1.36834979911539
H         4.18869451281557   -0.33593493144303   -2.02013284605618
H         5.18431405384800   -1.64167039900695   -1.83545181578976
H         3.01032153510082   -3.40356623284860    0.23928517646804
H        -1.33232986369415    0.43424702048358    1.92055902520371
H         2.81208864593807    2.56713792502827    3.42999412861947
H         1.51086057641572    3.00467249092229    2.30845413207191
H         4.59037948704265    1.30636007450485    0.42139810266842
H         3.54065823114586    2.19083435710380   -0.65273572876971
