38
 energy: -53.130208373786 gnorm: 0.144989201976 xtb: 6.4.1 (79825abcba525fcdf90b791dcacef51065a7a4e7)
C         1.08779388916156    1.06637573487126   -0.02936567016717
C         2.52994779360646    0.37136839942983    0.35804342574943
C         3.28844522380198   -0.34373122008991    1.72266045456066
C         2.34796753979856   -1.32652066519104    2.50217882442994
C         0.92226597855697   -1.20278979757989    2.02478798662967
C        -0.12510702876718   -2.05989327369835    2.72283708348798
C         1.09342716087502   -1.57870645544635    0.37606726092152
C         2.31365285144067   -0.93228826856360   -0.40814991141712
C         3.56950898146290   -1.75819525316005   -0.63515704505223
N         4.47939072933260   -1.12148713230146   -1.43922412477547
N         3.84854121742701   -2.97527105850280   -0.27211622371041
C         0.59122342918748    0.37203152831505    2.34956085599132
N        -0.55373724050874    0.98810501688207    2.33707635172557
O         1.68678388697315    1.01285686322688    2.72798949167909
C         2.19033538015243    2.28513477249873    2.21649142239592
O         3.34685863920174    2.37083495571979    1.34784028607880
C         3.43533747180298    1.56094390246968    0.13782246404580
H         1.07581195049257    1.16715330823484   -1.11927340452600
H         0.98021084401744    2.10010679675286    0.33473626017550
H         0.17837900042054    0.51345943462479    0.17985951831700
H         3.65189279627024    0.43796216786759    2.39467722401099
H         4.19050436397388   -0.84315797473257    1.33389130884482
H         2.31699270794567   -1.09100365602213    3.57012051526690
H         2.66418216276611   -2.36485486610284    2.33992553980902
H         0.12598364150005   -3.11471910733824    2.62394070616881
H        -1.08974881260399   -1.71072492855394    2.31531620573877
H        -0.01455494521999   -1.75055810953235    3.76797137605145
H         0.13803599816142   -1.34975753527182   -0.10852487725597
H         1.20561788476390   -2.67358193897706    0.29381090980242
H         2.03258444418730   -0.73449377907032   -1.45690905050730
H         4.29989810013105   -0.39741061885984   -2.10797012118960
H         5.21805668979028   -1.72580774466230   -1.78150132468219
H         3.11311548073503   -3.29392802711974    0.35537154397873
H        -1.31509471091900    0.31274129491530    2.27385166765962
H         2.73912694508002    2.66133271070452    3.08616927238218
H         1.39399040106107    2.97683666907430    1.92527345539209
H         4.51484919931358    1.40947017251414    0.07146338208792
H         3.17575060110128    2.14915465539688   -0.74919366153534
