38
 energy: -53.123391353851 gnorm: 0.149740143746 xtb: 6.4.1 (79825abcba525fcdf90b791dcacef51065a7a4e7)
C         1.20781762691104    1.14518379059589   -0.06997894373550
C         2.59841692196438    0.37194490785540    0.35577230311872
C         3.27765660195557   -0.29901664857110    1.78311581365699
C         2.38644031176244   -1.34102299752105    2.54336481599405
C         0.97785426906241   -1.10467401655026    2.05770981764450
C        -0.07552762595539   -2.06854368763416    2.58707827490389
C         1.08724396378060   -1.60677736025274    0.43758153641751
C         2.25363137780216   -0.91603928009447   -0.38959746507317
C         3.43743708519785   -1.81454470795076   -0.70916164398064
N         4.09884081666852   -1.44702675937115   -1.85252579452101
N         3.92231528499470   -2.89703265385074   -0.17620373897519
C         0.59395132711621    0.45967373369083    2.37482715337863
N        -0.51224325847967    1.13364295805312    2.26197175161868
O         1.69355208427170    1.06174622323425    2.80203312981728
C         2.17007484630615    2.36930012220805    2.35805753667233
O         3.32896155370181    2.35086613129635    1.48852481299655
C         3.55528926509662    1.53997261040789    0.29725548433972
H         1.25276073330769    1.17661313829628   -1.16322679818040
H         1.07965049449255    2.17801437207974    0.28999106832018
H         0.27308420811384    0.63313358190536    0.13152807217452
H         3.71077786246190    0.51234255440386    2.37374889982019
H         4.12286722786353   -0.84517559487775    1.33410731028446
H         2.49553696930133   -1.24930779418975    3.62808292967056
H         2.69277341860180   -2.36360392128910    2.28852368557441
H         0.39944094369270   -3.01601664690406    2.83644628933603
H        -0.76139976223541   -2.32065405694499    1.75970572252976
H        -0.68423763223657   -1.64044260316431    3.39107906737731
H         0.15929362526421   -1.68760261238930   -0.13895542152928
H         1.28406654466520   -2.68996666497202    0.51547252022675
H         2.01158077316899   -0.71753050587029   -1.44790914228657
H         3.92381069138188   -0.46912063044355   -1.98210081642761
H         5.02299675476502   -1.86200747976026   -1.89389362398629
H         3.34095365181337   -3.39763292633531    0.49278967545555
H        -1.21552076391426    0.57416948048608    1.78013268304101
H         2.51533390572603    2.80377293509394    3.30202055849446
H         1.29881547609775    2.94158263119400    2.02515426677187
H         4.62847073596514    1.34447185325545    0.24477340222662
H         3.34090676054163    2.16790665858816   -0.57447487249497
