38
 energy: -53.129654335640 gnorm: 0.145450390904 xtb: 6.4.1 (79825abcba525fcdf90b791dcacef51065a7a4e7)
C         1.15897833736065    1.07283807238705   -0.18860552373811
C         2.57265068329942    0.38964048441059    0.30908962090468
C         3.29162173033040   -0.30590077960727    1.70485768019819
C         2.44779616743395   -1.28191054413515    2.59557966008347
C         1.02775794874897   -1.15076506707164    2.10351397119697
C        -0.03523816122740   -1.95851344971441    2.83595577944095
C         1.21287514687178   -1.70640077997203    0.50792938772621
C         2.33519172087690   -0.97164030337872   -0.34197436359218
C         3.47438125399919   -1.86684206571818   -0.80207245824261
N         4.50615513621146   -1.11443407116800   -1.30120248164923
N         3.48439603672038   -3.16606516065495   -0.85545987549498
C         0.58799191998593    0.40084168355373    2.41051755326307
N        -0.61360339712976    0.89761845755999    2.40616841149068
O         1.62496907244528    1.12839212899423    2.79712695991937
C         2.01924318047123    2.39328212908660    2.18191422973592
O         3.20661939693336    2.41858645444880    1.35188845017416
C         3.53605395118380    1.55082973574873    0.22655902701351
H         1.39052151322641    0.93977426272810   -1.25015172919846
H         1.02984201586708    2.16278489647555   -0.09869463948998
H         0.17541615401660    0.65552645255694   -0.00156676212571
H         3.70878246951436    0.42896087030005    2.39818337093654
H         4.14863967006595   -0.80491452628757    1.22445704440550
H         2.53843243382673   -1.01250077770462    3.65205048872825
H         2.82939740033582   -2.30607982604447    2.49601300213212
H         0.10403121722110   -3.02879592042734    2.69248438167318
H        -1.04730156484604   -1.62720617069642    2.54528632789412
H         0.19683618178224   -1.73613709222354    3.88328856334944
H         0.27152853612219   -1.59988085281200   -0.04210652735301
H         1.38427678978414   -2.78612453078743    0.65933384297967
H         1.94445025306906   -0.88069205036442   -1.37011219012861
H         4.60067137219677   -0.12573079658774   -1.16983227573059
H         5.33891895197253   -1.58662995391265   -1.63514852889246
H         2.59913786964713   -3.53179090553168   -0.51093580291082
H        -1.28394870936831    0.16902293797449    2.16211010978316
H         2.36843420522918    3.08373184269886    2.95675708758436
H         1.18588027508024    2.84354893000254    1.63401749457270
H         4.56452272007375    1.23003624379728    0.40554764635998
H         3.59178349259246    2.16296026241040   -0.68028455220150
