38
 energy: -53.123205699373 gnorm: 0.161282969201 xtb: 6.4.1 (79825abcba525fcdf90b791dcacef51065a7a4e7)
C         1.14179126229125    1.08661486494281    0.04127795982867
C         2.56526644216780    0.31831367791644    0.35169803181558
C         3.27461320413264   -0.43081045204869    1.72447103115002
C         2.29115439667700   -1.33768815841948    2.54203074314123
C         0.90119537114255   -1.09591818072079    2.00780468078858
C        -0.18528891208803   -1.94149482834632    2.65852827193645
C         1.07710176782254   -1.66534671552088    0.41604538508233
C         2.27286594037764   -0.98968810182772   -0.38109782637430
C         3.52280453155426   -1.78087186305145   -0.73111356022362
N         4.30818346766399   -1.17580238006410   -1.67814933805790
N         4.05977373349353   -2.86514810077671   -0.25473107078265
C         0.57053835988259    0.49048880181853    2.27068805261250
N        -0.62130565211924    1.01010344468024    2.28276475336080
O         1.62764797899269    1.11008544014188    2.77341794806075
C         2.24274162832571    2.31656893942310    2.22574756084339
O         3.43724775981386    2.22211795574480    1.41108229524515
C         3.54462299355093    1.45536136770916    0.17477729294769
H         1.35603872169885    1.69869957559020   -0.84056607176237
H         0.70884121914879    1.77472401744727    0.78411326711667
H         0.39831010169908    0.34958033719901   -0.24252291352141
H         3.87039305512933    0.29971187960584    2.27776004258365
H         3.95705092429363   -1.09280051138107    1.16740087078971
H         2.47216466161631   -1.06199657550682    3.58517818951665
H         2.63834666490914   -2.37386818463744    2.44081703149054
H        -0.12336439032586   -3.01286326737012    2.84242926104149
H        -1.12309730836328   -1.67826625048060    2.13915200965058
H        -0.40921272815273   -1.58862009752703    3.67122429920979
H         0.09332237885518   -1.64776155889434   -0.06550243983434
H         1.35094466238500   -2.71452084524823    0.62183394005010
H         1.92303722001133   -0.74252994591343   -1.39822641689384
H         4.07354381190083   -0.26132677470908   -2.01341672067133
H         5.31115201039002   -1.29691392452903   -1.76400142098661
H         3.52137483652336   -3.29187472466658    0.49637823644073
H        -1.33826526377208    0.29770297172352    2.14773437838913
H         2.62228044927510    2.81287710012450    3.12500565907091
H         1.46313646295163    2.89671665876197    1.72268775720025
H         4.60394695799382    1.19402280077300    0.12757252112808
H         3.27332250732766    2.13569625007843   -0.63990997571678
