38
 energy: -53.134117343380 gnorm: 0.145240488076 xtb: 6.4.1 (79825abcba525fcdf90b791dcacef51065a7a4e7)
C         1.19208583423861    1.09023751332363   -0.16669164512374
C         2.56101218055880    0.34530365946514    0.36626531705548
C         3.26359259998289   -0.40317290132104    1.74286586264066
C         2.39049078558967   -1.41635258745558    2.56090157042963
C         1.00357795229465   -1.17395926907092    2.01909480562058
C        -0.06697459782932   -1.90320526392373    2.81972372565756
C         1.16468059742913   -1.68912110686998    0.40740508229572
C         2.29872311116653   -0.94096945511232   -0.41479957682978
C         3.49938525788606   -1.81034390272822   -0.75158988622229
N         4.25252751642156   -1.19239051361164   -1.71632625555129
N         3.86990304253346   -2.99194562107380   -0.35477115781881
C         0.65827620381223    0.40788316919215    2.29051703443941
N        -0.51982810365084    0.95636603734672    2.24722556917082
O         1.63379369715116    1.13889878595981    2.80830063915234
C         2.14136474355897    2.42364856954693    2.33324790490271
O         3.35020733794436    2.31413645089731    1.54195020306162
C         3.42622349203153    1.58133874861821    0.28293303880396
H         1.39824797692932    1.25267812708679   -1.22938105355555
H         0.85742857732313    2.02673589903534    0.30629834536529
H         0.36337322520882    0.39080473632354   -0.19027697711428
H         3.75304795457011    0.36425872672272    2.34803310022734
H         4.05856458763774   -1.02978907787039    1.30737654769742
H         2.31744047622506   -1.12810227333449    3.61375605831702
H         2.71229616739889   -2.46500148707417    2.52579446959866
H         0.45371820282359   -2.71358418131091    3.32731567139712
H        -0.87242924993004   -2.23248922383275    2.14050325530539
H        -0.48121974526189   -1.29958152057138    3.63474214574864
H         0.18777912089788   -1.67481942717151   -0.08805268194248
H         1.42698741683453   -2.75791764479016    0.49091736850634
H         1.88756615431515   -0.72416877832277   -1.41578173024007
H         3.77551579413619   -0.40000293974751   -2.10143321661948
H         5.02164710225934   -1.65676655721312   -2.18621394187860
H         3.38931560192407   -3.34073889372547    0.47197737513126
H        -1.20115537526999    0.36414128924249    1.77305079580724
H         2.40449939163762    2.98792808968794    3.23401724685747
H         1.31387472163522    2.98000568249540    1.88252428945161
H         4.50933604381179    1.44159316574602    0.27729705630636
H         3.25547912393225    2.26065324755946   -0.55941665895278
