38
 energy: -53.118976165222 gnorm: 0.153353651125 xtb: 6.4.1 (79825abcba525fcdf90b791dcacef51065a7a4e7)
C         1.21135216565069    1.19806774061034   -0.04446173884177
C         2.52465039615477    0.25936370814978    0.28266426492013
C         3.16209629576938   -0.49912209868640    1.68524313728929
C         2.28122074057681   -1.42480109273254    2.59364775043059
C         0.92659088944724   -1.11953527298082    2.00404869243018
C        -0.09242974279185   -1.96434081083997    2.75690305150054
C         1.11716120178917   -1.65747983350093    0.40305271723159
C         2.16248343602337   -0.95781195491372   -0.56626152597956
C         3.47046850709751   -1.67084671273955   -0.86889292181190
N         4.23378858990936   -1.00723010219619   -1.79450697370663
N         3.87235261363953   -2.78485819216164   -0.33186520698294
C         0.68817411038508    0.45475202461740    2.40393082947594
N        -0.42684403111208    1.11437206656423    2.29314596529349
O         1.76750166244389    1.01859653907661    2.92474697496301
C         2.28144368056642    2.30162815233597    2.45190560869163
O         3.35313982606740    2.16322086672606    1.48663042968035
C         3.48703466011044    1.42341246981662    0.23657008355145
H         1.42703224033339    1.64213511214264   -1.02143913743305
H         1.08542470399804    2.05361061173393    0.63739815371921
H         0.26897707195531    0.66330806061530   -0.09434492736904
H         3.77913961204703    0.17428706859495    2.28567870991170
H         3.91091439093357   -1.13444833701586    1.18533187145921
H         2.20191235225477   -1.04228497395063    3.61556690792174
H         2.71255035852383   -2.43273276016607    2.54380557539594
H         0.11033187123675   -3.03072596625996    2.67207980467038
H        -1.13905695312701   -1.83913883119594    2.42915084510738
H        -0.15205860221561   -1.60239293256759    3.78920815247126
H         0.17981802620358   -1.78123595610300   -0.15020275498946
H         1.41829037358366   -2.70482765850776    0.57766360788613
H         1.69799926158153   -0.76601855970540   -1.54885380612507
H         3.84027053294655   -0.23532128529253   -2.29752381060075
H         5.06430359889827   -1.56006465318235   -1.97507073902363
H         3.22600541441960   -3.28395095468905    0.27581553864443
H        -1.13652957748158    0.55460526549932    1.82114356094934
H         2.75600830886964    2.64545390015374    3.37689690635007
H         1.41903039355158    2.90500016528571    2.15255583342656
H         4.53098819904295    1.10270491545129    0.23760838402740
H         3.45227354551587    1.98034851669515   -0.70618585258447
