38
 energy: -53.118476310692 gnorm: 0.166373549038 xtb: 6.4.1 (79825abcba525fcdf90b791dcacef51065a7a4e7)
C         1.17124154721198    1.20575694789653   -0.16479793509255
C         2.54807967081602    0.42830098495321    0.29651312479144
C         3.33167145108397   -0.26254004284532    1.65944674145803
C         2.51093987002076   -1.40109686386767    2.35809564746917
C         1.06881680299735   -1.17559390583429    1.97695822052264
C         0.05510601065333   -2.03077097091309    2.72525745917566
C         1.03959501069558   -1.60070519912945    0.33156586703519
C         2.23136291862541   -0.87788955542163   -0.42937474994938
C         3.35759082383847   -1.89321765094850   -0.53684010219277
N         4.35969446956118   -1.21556599312587   -1.18211712783372
N         3.50887345161086   -3.17108869703925   -0.34951602992271
C         0.70910494223287    0.37239797754277    2.38861009943971
N        -0.52665184755875    0.76816774224018    2.30549100494375
O         1.62693661486619    1.15837461583163    2.93077591581839
C         2.16602151014332    2.35965156299473    2.29815706071245
O         3.33304809014524    2.32407718205605    1.44011931116207
C         3.44284679178563    1.63800402061296    0.15748802808592
H         1.19315149739464    1.27761474162850   -1.25683958449615
H         1.21181185487741    2.24149463908858    0.20715061522241
H         0.19663373061807    0.80453625461610    0.09149996189527
H         3.61463429470966    0.48445665309589    2.40555209011628
H         4.23925981984183   -0.71315020431295    1.22641895497975
H         2.54380865311538   -1.22286505520443    3.43702114143424
H         2.88080694991128   -2.40479652403535    2.11265512428141
H         0.33568815816316   -3.08088109252454    2.66179920901773
H        -0.95737307101377   -1.90932860410501    2.30257149127836
H         0.15311905775899   -1.60840313095717    3.73134619698657
H         0.11625412247095   -1.45192927541834   -0.23880834867845
H         1.13223309249430   -2.69997196894830    0.29786198153535
H         1.91278290100391   -0.54846047229209   -1.43336732503663
H         4.17731380792025   -0.54628458614887   -1.90497625105794
H         5.24100629623098   -1.68012528981794   -1.37042170292543
H         2.77737304026256   -3.57146316227301    0.23421473891957
H        -1.21269485836578    0.15074704826493    1.87199892789038
H         2.49299527204558    3.09757892922902    3.03814893878291
H         1.32073451358691    2.82043368942627    1.77797010489146
H         4.51022857055943    1.41106337478212    0.20093308910938
H         3.36036070524736    2.29166843414199   -0.71777976489048
