38
 energy: -53.128334835434 gnorm: 0.148413696813 xtb: 6.4.1 (79825abcba525fcdf90b791dcacef51065a7a4e7)
C         1.17212356810106    1.19305889253423   -0.01446766329959
C         2.55167611573803    0.38050071405258    0.37220127784187
C         3.27131476953153   -0.41814950238481    1.71128436124000
C         2.37930940894807   -1.36255107356016    2.58903966721765
C         0.98989118492211   -1.14865009027649    2.04168269182140
C        -0.09717984347605   -2.07064485099166    2.57749178811851
C         1.15945873717723   -1.54506023992333    0.39760379915648
C         2.32939793099430   -0.88696124397618   -0.45089596298131
C         3.49973741146428   -1.82616821307566   -0.69384662848953
N         4.43023529624434   -1.21979418202796   -1.49776835805526
N         3.71350523699383   -3.07562014273438   -0.40383911744215
C         0.63111350855002    0.42422637275325    2.34576662503686
N        -0.56755491867474    0.90072357462621    2.50941801250233
O         1.73544282052043    1.11284247410320    2.59149556466721
C         2.10008082491307    2.47202817365205    2.19965524022217
O         3.33767001433991    2.41006601772193    1.44866983738569
C         3.45226992701247    1.58762829844084    0.24935410789531
H         1.08625313057995    1.06655482955885   -1.09835951617019
H         1.12915531802889    2.26182595235665    0.24751503911132
H         0.20832472347136    0.78891216627104    0.27584986209438
H         3.85361377146267    0.28382722400179    2.31369765725042
H         4.03412026983070   -1.07396398296611    1.26149066484319
H         2.29586213697038   -1.09007616631374    3.64531668444543
H         2.81154344917641   -2.36584495257941    2.48401180766527
H         0.17596977104923   -3.09553552742878    2.82340426411044
H        -0.99995247001343   -2.05764893173592    1.94238686972557
H        -0.35211945158334   -1.71365785141281    3.58137513447485
H         0.21281471014561   -1.52740144651532   -0.15337051244141
H         1.38593246427845   -2.61782831004488    0.52402983256575
H         1.91415341273176   -0.85561889744392   -1.47295638069422
H         4.10486914414436   -0.50901961013367   -2.12439583629256
H         5.22990411972326   -1.75384603446977   -1.81917601313103
H         3.20140573868936   -3.45333615108362    0.39065373611904
H        -1.32547124524597    0.23015002879839    2.38422745157813
H         2.47827459903823    2.92979743644484    3.11968426404790
H         1.29784046118146    3.06121416673391    1.74501800555070
H         4.51090952771817    1.33143505871105    0.32898212165489
H         3.29396307451601    2.24553391384343   -0.61219913439623
