38
 energy: -53.132107898756 gnorm: 0.157878597456 xtb: 6.4.1 (79825abcba525fcdf90b791dcacef51065a7a4e7)
C         1.13039633243599    1.08221377807595   -0.03097309467625
C         2.55653977273971    0.35262918263732    0.35210668650507
C         3.19951718846467   -0.37776911491388    1.76701440275742
C         2.29879699132820   -1.32391252492484    2.63392734594292
C         0.95367226812575   -1.17840867475782    1.96661601998881
C        -0.07554029886236   -2.01757766490823    2.71187170742607
C         1.18067761518909   -1.66484991741477    0.35393718597021
C         2.31230176574318   -0.91273740398723   -0.46798579037508
C         3.55682283008793   -1.75145403454388   -0.70995890636350
N         4.08182602394291   -1.38212634490104   -1.92147639702552
N         4.05081964420959   -2.81047408832875   -0.13954253429133
C         0.63231668341031    0.40740376085550    2.24420980586916
N        -0.54892488872798    0.95032019907190    2.26760724041196
O         1.63856585512891    1.09910991226058    2.75716522838784
C         2.23653172269659    2.37378477795947    2.36790146972034
O         3.45983865095104    2.20643224481867    1.60964117984291
C         3.42998639170680    1.58414474507971    0.29064069889102
H         1.34342684456619    1.32386401686281   -1.07711922609175
H         1.08303578878614    2.11746247778393    0.34153375032365
H         0.21709384712687    0.49836423030990    0.00808246414973
H         3.67935360363340    0.34755116213554    2.42914184206592
H         4.02792830162329   -0.95877922255483    1.33061834459831
H         2.35423465738565   -1.01225612833784    3.68117331156342
H         2.65144352214583   -2.35845918356778    2.53488509048835
H         0.35290923077040   -2.98716910077019    2.96048387185282
H        -0.93977514579464   -2.11336060337956    2.03183543730328
H        -0.39133334361900   -1.42711710295334    3.57896269082343
H         0.23931411798512   -1.48075574183062   -0.17517862577810
H         1.31060809606163   -2.76079937747050    0.36480234918925
H         1.87170546852710   -0.67276271891292   -1.45099387839972
H         3.91704534789255   -0.44996108847882   -2.24956309996207
H         4.93271219624833   -1.80051543931005   -2.28054153778941
H         3.48823627682462   -3.15740143399214    0.63458636132301
H        -1.40067779357968    0.44144393395163    2.03236131985573
H         2.60303446603163    2.84509575751628    3.28582212397946
H         1.50776738787038    3.04575589666887    1.90445556405170
H         4.49322048497159    1.43331850254220    0.09194972338055
H         3.16013045125879    2.22567186378369   -0.55540633021973
