38
 energy: -53.126118641944 gnorm: 0.157460503045 xtb: 6.4.1 (79825abcba525fcdf90b791dcacef51065a7a4e7)
C         1.18018445974683    1.09343423621484   -0.03812544867472
C         2.61707994201967    0.38332316410625    0.34135119036864
C         3.32096565683878   -0.41585284456463    1.68846962181587
C         2.33349529283129   -1.33695610084783    2.48502052133608
C         0.94356060110483   -1.07450858987276    1.96057878012427
C        -0.06991650248218   -1.93552988620502    2.70246530869324
C         1.13680921323577   -1.60440497794523    0.35722157821233
C         2.33120922692820   -0.90760212422943   -0.42359735156408
C         3.51495515106886   -1.82743049790829   -0.67557070122518
N         4.30025242119878   -1.32998656500018   -1.68337209464086
N         3.87576456029633   -3.01112683861384   -0.27605763508061
C         0.54926896461837    0.49280164719580    2.24902551514826
N        -0.70685954611361    0.81212203318332    2.35301113640009
O         1.51367085634554    1.21711441555589    2.79621657152175
C         2.16246317170018    2.42059544018644    2.28183596985102
O         3.34584546890360    2.34736196426197    1.44895629432568
C         3.57031564057149    1.55197369751743    0.24693058959723
H         1.45798328090763    1.52474728769794   -1.00507706414366
H         0.62541006445623    1.85379206480116    0.53356114912153
H         0.36833350689304    0.43603543322173   -0.33010472672744
H         3.72392674517876    0.35313164425412    2.35257085780231
H         4.16728624876558   -0.98690707679807    1.27383997314708
H         2.36025417661581   -1.04989144796599    3.54039012698728
H         2.59113361087999   -2.39425198776097    2.34288103359142
H         0.26049462938057   -2.97287412600205    2.68730047411704
H        -1.13054981771957   -1.82716275407882    2.41638997901632
H        -0.08147908558810   -1.60567447637090    3.74710754702695
H         0.30145367262172   -1.63186109346077   -0.35090743721170
H         1.34205791562719   -2.65943860857603    0.60798484458755
H         1.92896892054956   -0.68602894444520   -1.42715397801084
H         4.25612378230416   -0.33078160907627   -1.74140435341182
H         5.21260258279109   -1.75159316197336   -1.54976986618666
H         3.21392029260273   -3.46365263766733    0.35109205861301
H        -1.31531340027298    0.05519219059632    2.04217381972190
H         2.67629700719389    2.80239757087675    3.17022695919347
H         1.45875558382229    3.13906323458076    1.85053050972031
H         4.63518022441496    1.31093344700076    0.27255089577359
H         3.26966132876643    2.15244311934823   -0.61864338456871
