38
 energy: -53.125795259709 gnorm: 0.161504824694 xtb: 6.4.1 (79825abcba525fcdf90b791dcacef51065a7a4e7)
C         1.22330190416228    1.03309652435954   -0.07944892596366
C         2.62442315262931    0.32182895487769    0.41439982477113
C         3.32015144007143   -0.38462322981181    1.81645293308272
C         2.34830219097798   -1.21796980255764    2.72147491139007
C         0.97876886625875   -1.11466084043620    2.09734191692655
C        -0.08077376517420   -2.01308747318451    2.72111121012074
C         1.16281873230256   -1.69310140422719    0.50975831322209
C         2.27897995701495   -0.95668866928003   -0.34679537149340
C         3.41777495526345   -1.83472815028981   -0.83976783362192
N         4.34204647750610   -0.98952045871461   -1.39757786283321
N         3.59447098967396   -3.12079506888401   -0.91554078766120
C         0.55658102237921    0.46513185037203    2.24274228735623
N        -0.65527712673500    0.93357546618101    2.29371040555273
O         1.51951731239736    1.23348977134960    2.72905274013638
C         2.25042847927035    2.38647743208088    2.20917413330816
O         3.47203550550508    2.26755610440246    1.43912261139135
C         3.64879616707106    1.42236487239303    0.26340895679966
H         1.32724045061930    1.32868012751891   -1.12827001047376
H         0.94485714796957    1.93754475910327    0.48374388810633
H         0.34686350475576    0.40562245504974    0.04162577752078
H         3.56044826251965    0.45150552034685    2.47818655618320
H         4.22315604748657   -0.82201499266680    1.36087599150749
H         2.46624479663944   -0.86178851587933    3.74916726741597
H         2.64997351436317   -2.27154991628904    2.77994778626704
H         0.34926907248632   -2.98643659896477    2.95163061470522
H        -0.94007033348350   -2.09094691539488    2.03258170320312
H        -0.52973240730520   -1.57928820538993    3.62137229405685
H         0.20532378153533   -1.64315854811080   -0.02007992616843
H         1.44079289706929   -2.72562938529944    0.78311072546456
H         1.83340913881306   -0.76185271007815   -1.33751402101543
H         4.07905560886696   -0.07666844265904   -1.71579573984381
H         5.09937680737736   -1.52220567149372   -1.81071431385993
H         2.91832551684398   -3.60084810791939   -0.32519296233273
H        -1.31792824761884    0.28845679883932    1.86418262826652
H         2.60298719839598    2.91312861062374    3.10213410427277
H         1.54056452770728    3.00073613705228    1.64685379992335
H         4.69601741620920    1.11654750350213    0.31337675070115
H         3.53836462538404    2.06657900377609   -0.61577695477481
