38
 energy: -53.133609772581 gnorm: 0.141614164654 xtb: 6.4.1 (79825abcba525fcdf90b791dcacef51065a7a4e7)
C         1.12559968468009    1.17927061461366   -0.03937070227275
C         2.54475620648749    0.40374579928359    0.27285509258333
C         3.27169494898295   -0.33852411100916    1.64013740980824
C         2.40754716702615   -1.32118344228930    2.50364857068030
C         0.97506320268782   -1.14609573587354    2.06413715523449
C         0.00881512198544   -2.16273442642479    2.65717978402482
C         1.14495258490448   -1.53108942843234    0.41738064224993
C         2.30029010629901   -0.90571076925730   -0.47475196664995
C         3.48132248436356   -1.83396263639382   -0.70786196281790
N         4.62155166531756   -1.20398777073732   -1.13543068909366
N         3.56160821495554   -3.11272552272799   -0.48593660229147
C         0.61052161320114    0.40647398474246    2.45370807191018
N        -0.58653923239191    0.86362736087744    2.67437404855351
O         1.68227759447498    1.13910495306669    2.71583217353253
C         2.08282198950294    2.41658808664332    2.13146371157830
O         3.27015678670312    2.43231848428667    1.30114208188331
C         3.46254276176535    1.59469869481960    0.12246660317754
H         0.87807918570392    0.81965335166416   -1.04316728998599
H         1.46754068233735    2.21166250390812   -0.21253995416145
H         0.21846649545013    1.04781679583514    0.54059165033162
H         3.80957739718969    0.33633057473192    2.31095695599300
H         4.08823719660818   -0.87548359916432    1.13100824753561
H         2.56180511619351   -1.06084976318325    3.55500865139928
H         2.69917502850263   -2.37167246478472    2.37762580883261
H         0.31927627129845   -3.18697335900343    2.45709719321787
H        -1.02162477964377   -1.97483618702147    2.30873548921355
H        -0.03622833423806   -2.14695779940937    3.75168326661961
H         0.23207768936243   -1.32399382093060   -0.15164508640004
H         1.26177441639831   -2.62203107906662    0.53698078063939
H         1.89681689597232   -0.78715552271625   -1.49513026892338
H         4.47635171572988   -0.32176331072525   -1.58745126498612
H         5.45000174459847   -1.74533977965284   -1.35586879471173
H         2.61798311138685   -3.45216431728740   -0.31133089609722
H        -1.40877789561369    0.36442699139953    2.33599367000161
H         2.39043659980006    3.01798107616905    2.99328524258323
H         1.22024751656789    2.88241695373092    1.64526057024293
H         4.49914811461290    1.26384571277628    0.21562803966262
H         3.40800094783067    2.13443161282289   -0.82931510269760
