38
 energy: -53.128440029742 gnorm: 0.152305890112 xtb: 6.4.1 (79825abcba525fcdf90b791dcacef51065a7a4e7)
C         1.07415700049029    1.10451748967910   -0.14469100841267
C         2.45662059573573    0.31347344522528    0.27479990134557
C         3.22875125624826   -0.36529853165336    1.65028102352419
C         2.39164903738298   -1.32361876154336    2.56619831520327
C         0.99198799628458   -1.17855045281942    2.02237807851631
C        -0.11611288395986   -1.96236579466557    2.71276571809560
C         1.15663977595582   -1.67289129959745    0.40453801887319
C         2.26794876883451   -0.98906266665791   -0.50054459473563
C         3.58118107335236   -1.73548729691388   -0.67113306454501
N         4.44230889298495   -1.12245240889102   -1.54431862083898
N         3.94114441573945   -2.89068006955529   -0.19480627334844
C         0.65710235040555    0.40919690448494    2.27145390627099
N        -0.51130281120909    0.94925367832599    2.45531644623719
O         1.66886443800605    1.04458336584540    2.84306532522906
C         2.17547309931616    2.30575967744584    2.30765197162432
O         3.29403414894155    2.32500921341235    1.38683928122518
C         3.39645642704611    1.49383182433788    0.19245702286555
H         1.15707114317617    1.22385348546179   -1.22962544146230
H         0.92142280802164    2.11909490732170    0.25537044017405
H         0.22974466877450    0.42419787952242   -0.11899853619908
H         3.71780508613837    0.36619346133551    2.29873383576480
H         4.08689714359617   -0.82802953722519    1.13672003456623
H         2.45109410260950   -1.00422456647311    3.61089003452103
H         2.76419066408050   -2.34601822652934    2.42348251250363
H        -0.12693845531692   -3.05108041442839    2.70452956353046
H        -1.05252278150652   -1.60924580154240    2.24696710634053
H        -0.14796108715634   -1.54724693154428    3.72611546909500
H         0.22649705648137   -1.56577796383817   -0.16412769339148
H         1.20626653360419   -2.77545238684107    0.40573382931927
H         1.86887436883393   -0.92184037608852   -1.52730582599009
H         4.47719178563546   -0.13414484713104   -1.70480837520965
H         5.13034329070454   -1.81623665129639   -1.81497815544741
H         3.17359562808637   -3.28091356892576    0.34807571524193
H        -1.30516871498108    0.41746626195206    2.09928584540361
H         2.68759386601195    2.79963146452834    3.14003386158991
H         1.34187297974532    2.95024176841646    2.01239203825917
H         4.43457316757248    1.15508281065879    0.17645269724058
H         3.24188404175613    2.16509781419207   -0.65941397376406
