38
 energy: -53.127993822820 gnorm: 0.151126825594 xtb: 6.4.1 (79825abcba525fcdf90b791dcacef51065a7a4e7)
C         1.13292063016499    1.18295536713825   -0.08790528071081
C         2.47666877474430    0.34624194390700    0.36726551742162
C         3.20786497103405   -0.41726949766689    1.72050897792213
C         2.36579936699557   -1.26991606860886    2.73142025424658
C         1.00342771617398   -1.17872753266122    2.08996533116750
C        -0.06150185145736   -1.99506996317361    2.80996477021783
C         1.18478419473223   -1.64434283342485    0.46540330683438
C         2.27273866749261   -0.93106017834773   -0.44530342337626
C         3.52211471095631   -1.73180459541127   -0.77499589930478
N         4.39592053754906   -1.04455036197350   -1.57746142055140
N         3.88136585760713   -2.91297586476598   -0.36670163041799
C         0.56806229399028    0.40068339380698    2.19506956285673
N        -0.58450634297345    0.92954970533705    1.90780084038307
O         1.51900709784608    1.13328765299642    2.75463461885601
C         2.15528499520270    2.34441249352521    2.24256769862055
O         3.38710167719007    2.14542314617459    1.50603780701771
C         3.58010942559579    1.37509463758947    0.28242137624637
H         1.41875334035662    1.45675432707806   -1.10846020353929
H         0.97761374980506    2.10278374242875    0.49736368917483
H         0.20724398703548    0.64788587450030   -0.27052631739091
H         3.64975220414561    0.36319189353671    2.34529768384399
H         4.00659749381339   -1.00896262580710    1.24489902410518
H         2.40050777515444   -0.84584691502882    3.73933286594211
H         2.73942493917876   -2.29565527072948    2.84419766027333
H         0.07276987623224   -3.05213286452947    2.58619326540839
H        -1.07092777164710   -1.63641693577694    2.54359494473746
H         0.16278211650821   -1.89421709754322    3.87755134512674
H         0.16373661909090   -1.55726085635961    0.07823665076060
H         1.33369249061073   -2.72524733001461    0.63146653772563
H         1.73861445262082   -0.86640052216258   -1.40891553470229
H         4.07994786769602   -0.23286710838549   -2.07249393075013
H         5.09501572535121   -1.67830498787195   -1.94841355271439
H         3.21172064945031   -3.24741215873703    0.32312576790810
H        -1.30379845967912    0.22260916765841    1.75735934143435
H         2.53012712672206    2.83910967263642    3.14467894999416
H         1.47698357719818    3.03912607380561    1.73788465236408
H         4.61346399065723    1.02692217079854    0.34281737650070
H         3.39590231109320    2.07548864222706   -0.53958278056445
