38
 energy: -53.123646565710 gnorm: 0.138777321197 xtb: 6.4.1 (79825abcba525fcdf90b791dcacef51065a7a4e7)
C         1.16562526707320    1.15659163615195   -0.00727267681375
C         2.54905836862683    0.35493884300285    0.38819484996616
C         3.25840460238285   -0.41375846353556    1.75010448543349
C         2.30047545342427   -1.31700568278387    2.60130275220818
C         0.95171056784805   -1.07072299869294    1.97200598187727
C        -0.02885743460463   -2.09806034434240    2.52150896015930
C         1.13152967799573   -1.51678651043652    0.34179679867481
C         2.34869837398673   -0.89500007964428   -0.46671161084545
C         3.48206666508356   -1.86685397276278   -0.75272837279524
N         4.17565253529482   -1.48555939826395   -1.87226355406949
N         3.87826742918303   -2.96381150696054   -0.17771507375332
C         0.56219587623455    0.46294747172850    2.40934109102410
N        -0.59770062570020    1.04927653332876    2.44801514696117
O         1.65999520514547    1.10406698567030    2.78071754224162
C         2.22168024109959    2.38417321228500    2.35677953435134
O         3.27464209522074    2.40528194699782    1.36165585999192
C         3.53013270069893    1.49587502681537    0.25008095551369
H         1.20449426486025    1.19606434237335   -1.10049253879878
H         1.14262016770173    2.21651963285069    0.29066632264574
H         0.19475410051699    0.78633517424041    0.30392884915177
H         3.68448415962875    0.27153762688398    2.48737697119883
H         4.16599457667693   -0.79083157499394    1.25173158999879
H         2.24384168410755   -1.01793659402553    3.65214882032145
H         2.65314591632946   -2.34371697821353    2.44023383659969
H         0.48993123472067   -3.04892128978082    2.63199127758091
H        -0.91431957149463   -2.17149650474907    1.86645972235206
H        -0.29793903394169   -1.93906897397506    3.57152444927241
H         0.19630007102063   -1.32392272669699   -0.19501656037128
H         1.27616010029061   -2.61072818084112    0.31991352201344
H         2.10304244912669   -0.55641366181653   -1.48800014076584
H         4.34680548946148   -0.50707392719352   -2.00264175004500
H         4.89411573727754   -2.18673022232344   -2.01423045210867
H         3.42737988218385   -3.08710240953040    0.72651606532947
H        -1.39829654725390    0.53455805956354    2.08210563026567
H         2.65533370515399    2.85386964984970    3.24580515595318
H         1.32824886911074    2.94244205902912    2.06090619842467
H         4.54215333325287    1.16685236311162    0.49554324312635
H         3.48241017611354    2.14348221193170   -0.63224684461527
