38
 energy: -53.109195248337 gnorm: 0.153892091063 xtb: 6.4.1 (79825abcba525fcdf90b791dcacef51065a7a4e7)
C         1.28875157368163    1.25859685348547   -0.06431039308584
C         2.64043390671002    0.40868904143482    0.34009100016063
C         3.34376023911627   -0.23855096150856    1.76672266401640
C         2.51077554250984   -1.35724255795649    2.48274491423638
C         1.07850582431640   -1.15772578384263    2.05305577076835
C         0.13604592484561   -2.08520557826674    2.80833035913820
C         1.05144435236858   -1.43014635967232    0.37557425657495
C         2.30344377691559   -0.86993083923520   -0.42471307531842
C         3.43982967370558   -1.84502233399469   -0.68673001968285
N         4.29076361471524   -1.36722014056791   -1.64975774262035
N         3.59636408012031   -3.08288062671150   -0.32048560505500
C         0.49970059191904    0.34671850244776    2.36411953948653
N        -0.76328773312233    0.62536359090096    2.23049789913168
O         1.39207585970581    1.24595365260239    2.75033263443827
C         2.04950538169199    2.36727912549669    2.08377352559772
O         3.38999901405794    2.24457696605625    1.54761463499150
C         3.60044848232834    1.57347477223328    0.26963653766617
H         0.38498666801310    1.02656192072875    0.50802459441351
H         1.16716623004189    0.96815378361960   -1.11958480017224
H         1.60925752750115    2.28442926372863    0.08221902134555
H         3.49235996510986    0.57130604715729    2.48560720060812
H         4.33337823967572   -0.62302258218936    1.47156675259170
H         2.65142129796229   -1.13424077084988    3.54454344810498
H         2.87922004081940   -2.38636409824711    2.38469789845419
H         0.46970698303092   -3.11322436099010    2.67667839695528
H        -0.87672215726666   -1.87957208933159    2.42033390029160
H         0.23744108050821   -1.79749187479916    3.86054494834187
H         0.16217265349749   -1.02845616888119   -0.12228140899502
H         0.88872683680780   -2.52057281419950    0.32460021821936
H         1.83184514775244   -0.78916994318244   -1.41924323869348
H         4.26105577746986   -0.40299182474823   -1.92014045908547
H         5.10486594050894   -1.95156491296520   -1.80391051090198
H         2.86626114236351   -3.40693006877920    0.31044690513816
H        -1.32737166671434   -0.21151139189053    2.08479857646765
H         2.27402633482723    2.96819094797239    2.97120349611297
H         1.35115993215579    2.94966394824192    1.47503196457756
H         4.66455830447011    1.37086054416195    0.13067199249658
H         3.35822032043563    2.31131849462089   -0.50307750988058
