38
 energy: -53.130585993596 gnorm: 0.141529410634 xtb: 6.4.1 (79825abcba525fcdf90b791dcacef51065a7a4e7)
C         1.09359187837645    1.10948705114111    0.02929462794689
C         2.52265447366390    0.35353793024037    0.34433419206970
C         3.28041374983157   -0.35511084138545    1.71272129536871
C         2.41753914165075   -1.36160804687745    2.54964008566629
C         1.02859838214330   -1.12278740318317    2.01145371533419
C        -0.07976281680320   -1.89336816592553    2.71617344389877
C         1.15598361563485   -1.61952855569737    0.39098749205291
C         2.24348401146011   -0.88579825969080   -0.50387930204210
C         3.33914827196627   -1.84139558458898   -0.94793203525719
N         4.48411164049146   -1.19458199908251   -1.33587145187136
N         3.30334106973686   -3.13490500571138   -1.07631578215481
C         0.75993907541639    0.43553038117916    2.45258484735346
N        -0.42969701138861    0.92726607987211    2.63588610172487
O         1.76477079333439    1.16962285244918    2.90594951852134
C         2.30626181736067    2.41030121730229    2.35695941911148
O         3.28684682821183    2.41394345521864    1.29024243016589
C         3.48084009683735    1.50789134310676    0.16359637415190
H         1.09036620674600    1.31886881510999   -1.04511098879510
H         0.94184117447798    2.06565069431757    0.55414417601930
H         0.19877716302090    0.52595468289810    0.21724052561535
H         3.89666576392722    0.32677482567497    2.30433825036545
H         4.00296075558812   -1.04595333123322    1.24910322235282
H         2.49185437008853   -1.23930351673925    3.63428104275934
H         2.84708451669607   -2.32996418921697    2.26287731636307
H         0.27448387646575   -2.92268870483245    2.73837875147554
H        -0.96327069092848   -1.93372271329310    2.05563508990689
H        -0.25661721486367   -1.52836810870047    3.73387338667673
H         0.15287416631708   -1.57570406989709   -0.04704251664453
H         1.41683358372073   -2.68524239486836    0.51063915488201
H         1.85543872758618   -0.55081475666886   -1.48123530647326
H         4.61878715370382   -0.23998369353188   -1.06323579399855
H         5.28745175647281   -1.80786844259667   -1.25519376615580
H         2.42426150245079   -3.60125562221059   -0.86214204442542
H        -1.11050291997353    0.23719640274394    2.31952258237224
H         2.71943627389776    2.76706992213128    3.30619046962375
H         1.45586187376837    3.04007803023539    2.07834525689717
H         4.51393144662689    1.15392222783685    0.17462026127726
H         3.21090722465387    2.08105805524425   -0.73015471949513
