38
 energy: -53.132227577656 gnorm: 0.142420975016 xtb: 6.4.1 (79825abcba525fcdf90b791dcacef51065a7a4e7)
C         1.18574399017809    1.12846158308248   -0.06812397438798
C         2.52549615304276    0.28230689809155    0.38133716735576
C         3.25591260952309   -0.39432000147361    1.78045594053120
C         2.33874610580024   -1.33870721433125    2.63190217075682
C         0.95078561993332   -1.10234404158652    2.09011399176227
C        -0.11421645002643   -2.05285797789493    2.62038090335233
C         1.17199741436067   -1.66946816513930    0.50319083180273
C         2.30423695991745   -1.01354524461058   -0.39658834307712
C         3.56429907393071   -1.77528552072473   -0.77450960523506
N         4.19710618505952   -1.20314555671186   -1.84783012930082
N         4.08506589508358   -2.85813598469139   -0.27734970825308
C         0.56320315957602    0.46494520220783    2.38762541955070
N        -0.61479063008512    1.01356419126429    2.43218078688877
O         1.57429451060628    1.21971734842727    2.79028079165820
C         2.11031376258791    2.42102921606628    2.15512834354450
O         3.36759237095976    2.20774046685625    1.46723024493840
C         3.54681565313047    1.39060145300655    0.27221643010838
H         1.29250172782324    1.15142015717856   -1.15728615453586
H         1.26769192144841    2.20768467901197    0.13511551540397
H         0.18732279325864    0.75105668415074    0.12487270491737
H         3.64850457949974    0.39117503347220    2.43131255844476
H         4.02374968261822   -1.01053039432695    1.28549106981354
H         2.51433818641944   -1.07858872544587    3.67996369222185
H         2.58585375222137   -2.40565521025958    2.56108185801049
H         0.43378511408272   -2.99002623066555    2.70341414565206
H        -1.01364547354731   -2.10037215176371    1.98218390978026
H        -0.36238721040695   -1.69734146524512    3.62647979522615
H         0.24950015642503   -1.67200890009800   -0.08758136592693
H         1.35524405077382   -2.74849510271604    0.64541160609564
H         1.81846132649385   -0.75461955598520   -1.35314329877586
H         3.72555281678999   -0.40659846092150   -2.23107387370914
H         5.17123343077299   -1.43095068676227   -2.01264948846038
H         3.49548764131673   -3.15204638864280    0.49863246877249
H        -1.36513619675814    0.41623829655133    2.08582545109503
H         2.54444356326088    2.99179001555954    2.98265481373431
H         1.31936685472675    2.94798545541448    1.61277710821414
H         4.61405189987053    1.15942020226803    0.25623431267913
H         3.35466680080071    2.05928940687716   -0.57401645606521
