38
 energy: -53.121135690540 gnorm: 0.168931876086 xtb: 6.4.1 (79825abcba525fcdf90b791dcacef51065a7a4e7)
C         1.10707526578349    1.25395243833838   -0.05956444561868
C         2.51942599519854    0.47101359459106    0.26478272096566
C         3.29940493123397   -0.22890961517721    1.62515246660587
C         2.43898409331967   -1.21730252865509    2.48583691106006
C         1.00195754747084   -1.13801077432804    2.03361589740833
C         0.09753961645327   -2.20290194775395    2.63935855422091
C         1.11442470712684   -1.50202924229948    0.37719466765674
C         2.27196858480628   -0.83761125742538   -0.48329633496191
C         3.33772717442035   -1.87840959671199   -0.78616046415971
N         4.58375918096941   -1.39928811870562   -1.09865487636087
N         3.14698462099961   -3.14700340052707   -0.99880618276632
C         0.56643542874167    0.41343577619205    2.34740396091423
N        -0.62504785319478    0.84639851875961    2.63645107356522
O         1.63057836959408    1.09303163214322    2.74723812724830
C         2.32793078687909    2.31224805405754    2.34586998220633
O         3.48786658886119    2.33371419158822    1.47780690435079
C         3.48896152523797    1.62827315791837    0.20099568033357
H         1.23111777956019    1.46402207930080   -1.12665523965914
H         1.01869069362365    2.19629558217920    0.50339364005340
H         0.24528779414645    0.60175564665326    0.03257001750530
H         3.78428796498962    0.48500789752148    2.29593966516732
H         4.05728051851304   -0.88805675508357    1.17190983715757
H         2.39068796058148   -0.92822405802103    3.53989017885164
H         2.82870266068687   -2.23483439542770    2.35467259769239
H         0.46710649567795   -3.20956566634736    2.45085644631795
H        -0.87419310027372   -2.00594343933484    2.15410763640456
H         0.05054914728592   -1.86287999354589    3.67973957616487
H         0.10839459575734   -1.45732865948566   -0.05399521988225
H         1.21149862381924   -2.59597601868221    0.48656710178337
H         1.82857436535184   -0.53723436360314   -1.44827982665824
H         4.98480253709237   -0.53172484257379   -0.79828210416389
H         5.34722048338514   -2.03716132687147   -1.29417749579410
H         2.18185362691876   -3.46884415518481   -0.96602101244683
H        -1.29743335051255    0.09664715988962    2.47660938477799
H         2.62808053553228    2.78802602067800    3.28532838037798
H         1.60272489013799    3.05034391498910    1.98989855376192
H         4.54921850537904    1.38725339921171    0.09873130450039
H         3.27081210943534    2.40304139845144   -0.54218656541841
