38
 energy: -53.123491294801 gnorm: 0.161550691812 xtb: 6.4.1 (79825abcba525fcdf90b791dcacef51065a7a4e7)
C         1.11214691136434    1.14577313554606   -0.13492208673683
C         2.47730613769541    0.34727575622574    0.32515521755651
C         3.24063794016794   -0.36210728323966    1.69006024720762
C         2.37066967949045   -1.34084251712665    2.55218253804324
C         0.97871917571355   -1.15194572641986    2.00206610865763
C        -0.02971230530967   -2.01370149547094    2.74995116460313
C         1.13891412175187   -1.67145312679001    0.39168132785610
C         2.26294283276886   -0.94400674077297   -0.46224198210970
C         3.51322652253541   -1.76199552415120   -0.74244599058993
N         4.41616409360785   -1.24427774560945   -1.63490212588181
N         3.70109716011553   -2.96516945465290   -0.28636673980129
C         0.74621752127087    0.41698477722748    2.42577452243337
N        -0.46183703084048    0.87818911295110    2.28964184608651
O         1.74515986926646    1.18174977257119    2.83973915972441
C         2.10074213383416    2.45950367688613    2.22753684044044
O         3.30903620699704    2.33084307095175    1.43828576750994
C         3.43116356683202    1.51573397873112    0.23471722767512
H         1.24782722095313    1.31240094796845   -1.20824616828545
H         0.89443739324605    2.09383009114092    0.38134800864001
H         0.23571064185180    0.51285761961692   -0.04657912827886
H         3.64858099964600    0.41942388829632    2.33623106504190
H         4.09802801458538   -0.84263718972294    1.19181080541833
H         2.50199121074514   -0.91944638700418    3.55323554187076
H         2.77392548199600   -2.35742302790567    2.46050621613028
H         0.56530833761407   -2.86850994038941    3.06734290610922
H        -0.95229725488950   -2.28094605401907    2.20594481182386
H        -0.50160402903563   -1.53031534508105    3.61243114350223
H         0.15453322086328   -1.57900849919846   -0.07998344737362
H         1.22225725471813   -2.77170681593808    0.36716742429739
H         1.83294692442974   -0.80818435424952   -1.46955208372752
H         4.26811934736491   -0.29753101212676   -1.92727003562290
H         5.29242404530879   -1.73710749967961   -1.50347982092313
H         2.97018376574549   -3.36731685733336    0.29688042063354
H        -1.15060327542113    0.14741422593196    2.11258863860700
H         2.51273533638845    2.86902015483549    3.15575798421480
H         1.26914826494698    3.04019159001483    1.81683265398853
H         4.48736601340000    1.23859801480821    0.21667711754909
H         3.26346021169324    2.11155432134072   -0.66919015252293
