38
 energy: -53.131741036264 gnorm: 0.152318835812 xtb: 6.4.1 (79825abcba525fcdf90b791dcacef51065a7a4e7)
C         1.09265265423380    0.94439447305635   -0.01842345424700
C         2.56744040348958    0.29739724005693    0.32701046595878
C         3.25100724676534   -0.40780520713457    1.73565924262905
C         2.30397927472382   -1.26704928322557    2.64277550877921
C         0.93444718921928   -1.11809528148588    2.02793335801284
C        -0.20124537945531   -1.94473626297697    2.61594375536818
C         1.20075401017732   -1.70717723035758    0.45600693472014
C         2.32381833674265   -1.01017019716316   -0.42417005990352
C         3.60071995543715   -1.76437206465658   -0.75813270787147
N         4.37111907776402   -1.06759306417531   -1.65300148966363
N         4.03930832117465   -2.89830962696374   -0.29687679603978
C         0.58507069090933    0.45084394155852    2.36184141984198
N        -0.60562623912187    0.92940256927985    2.57126877783145
O         1.64087677381725    1.15346593189934    2.74356635201106
C         2.16308093289837    2.39559528851626    2.17938291885240
O         3.33456496799341    2.30521310465867    1.33150227201782
C         3.54108443766990    1.44270202092829    0.17334878490894
H         1.25758346463067    1.42853460159411   -0.98620686332231
H         0.83713907378718    1.75364105629108    0.68341486059826
H         0.21243139553026    0.32067702415714   -0.13118045093585
H         3.76381852712293    0.38594814169701    2.28495465773830
H         4.00008054152142   -1.09146453078885    1.30463909555091
H         2.32796117730240   -0.90484739469429    3.67484228030934
H         2.64233415983944   -2.30997391191840    2.69052404403397
H        -0.22837001511256   -2.99172682083718    2.31835413376411
H        -1.20032967967502   -1.52663230357502    2.40253052324709
H        -0.12144957588372   -1.86656515404744    3.70577750563464
H         0.23348682825634   -1.64358074950849   -0.05425684402133
H         1.52917749404210   -2.75376228895451    0.57808454223708
H         1.83133380088763   -0.78880070793721   -1.38670441663959
H         4.02171267621946   -0.27688907843905   -2.15938868484535
H         5.17708556589397   -1.49850676382820   -2.09199566944496
H         3.46742732534505   -3.19273606140209    0.49204612895901
H        -1.46647388108039    0.45187583645995    2.30539612994632
H         2.63652814896294    2.86417358220291    3.04847367872297
H         1.50888311746667    3.11634894965878    1.67941879484141
H         4.57570365882056    1.12112886695345    0.03606377919049
H         3.36079155617753    1.95576988641756   -0.77766682863050
