38
 energy: -53.134516203135 gnorm: 0.147116481616 xtb: 6.4.1 (79825abcba525fcdf90b791dcacef51065a7a4e7)
C         1.19134936380664    1.14886317296570   -0.12656127802537
C         2.57931701811598    0.35788698613826    0.27447655694747
C         3.24670385159019   -0.40839032080235    1.65877397996665
C         2.36324775928952   -1.24019331775768    2.65156366466971
C         0.97238312914959   -1.14601446550234    2.07496832811438
C        -0.08169520537047   -2.04798573651299    2.70286624559813
C         1.15691107202745   -1.67290944695968    0.46959590556861
C         2.22180213754697   -0.93792672366284   -0.45106212147180
C         3.44033200861176   -1.79257368178022   -0.76024290952199
N         4.36349279024396   -1.03187366052817   -1.43025452720905
N         3.78332363851072   -2.99634431625965   -0.40778843923662
C         0.58991628165828    0.42741467652837    2.34546528051357
N        -0.59395900321325    0.96469849017221    2.32539702126973
O         1.63248002578055    1.13537413604423    2.75286223065957
C         2.19424733107077    2.37841051319244    2.23021177068853
O         3.39387150314157    2.28558465821304    1.42291345827904
C         3.60600146869141    1.46589540905146    0.23505590997726
H         1.41778714486067    1.40368290004985   -1.16674943255516
H         0.90581552388480    2.07723162468918    0.39242491861275
H         0.29048403234887    0.55059220816978   -0.21046934048037
H         3.88007552867370    0.30189756808630    2.19643247803857
H         3.85925222543078   -1.15894628850142    1.13367449968313
H         2.35969745503085   -0.76145485118753    3.63529331616272
H         2.70246326240805   -2.27661057391021    2.77496475097344
H        -0.05575724616241   -3.09195550337799    2.39474468630361
H        -1.10572663608863   -1.79177190436915    2.38000457859412
H        -0.06913312738846   -2.00156360990012    3.79735373306262
H         0.17231925953116   -1.59440035614337   -0.00414950439770
H         1.33839045702615   -2.74636355463953    0.65088768206097
H         1.82632768527367   -0.77704190636006   -1.46877222870799
H         4.07720462653578   -0.17924140793032   -1.87159673852598
H         5.18631640468460   -1.58845685965862   -1.63313610446703
H         2.97256765107942   -3.46770841602827   -0.01202993623167
H        -1.31295962820914    0.25750213302005    2.17476460780398
H         2.60402018359799    2.87136483303007    3.11797236473105
H         1.47592079766207    3.06100050203255    1.76598915663841
H         4.58683274517397    1.00670666197135    0.37580070981177
H         3.58011540667287    2.04019548716417   -0.69751267672961
