38
 energy: -53.128906468509 gnorm: 0.153435985741 xtb: 6.4.1 (79825abcba525fcdf90b791dcacef51065a7a4e7)
C         1.09259576321430    1.06929091113106    0.05436927107898
C         2.51940493414871    0.30264058627231    0.35335385502887
C         3.32602173327728   -0.44384192232191    1.67282294784912
C         2.35396239778481   -1.36750077558626    2.48521278688128
C         0.95818305409827   -1.08134837981825    1.98947785589248
C        -0.21229312754060   -1.87380578178533    2.55594578944946
C         1.10803651309820   -1.64878077364245    0.39434339648492
C         2.25487837827152   -0.96141978297269   -0.46244854543140
C         3.45815725352488   -1.81919807987137   -0.81905138079986
N         4.41413589911957   -1.06960305383026   -1.45467552282603
N         3.81881714632530   -3.04287785511174   -0.56713193324697
C         0.72804710452615    0.46737432087107    2.48306088401761
N        -0.48183062468924    0.92119627218945    2.62755607818045
O         1.70512128424669    1.22530283672057    2.95739034934312
C         2.33516470852326    2.37181918635961    2.30744343599581
O         3.47807665243825    2.21663090424666    1.43045184997040
C         3.43871300310912    1.48742489147871    0.16767544584023
H         1.21367041000285    1.38198481599895   -0.98762977598405
H         1.04879496002116    2.02254829339614    0.60402925254122
H         0.22432213331288    0.42057453007280    0.09673697899203
H         3.70510178426080    0.28582272594259    2.39298477288186
H         4.16069147859927   -1.02496064918525    1.24866887897065
H         2.43411645465588   -1.14164074203473    3.55268163122706
H         2.50917828738403   -2.43802196138332    2.29988024435218
H         0.01606997073801   -2.92985652146636    2.42144042196616
H        -1.08545347680144   -1.62366793956092    1.92861203793751
H        -0.37891609495454   -1.65857635053372    3.61713793483833
H         0.18424303211148   -1.33195704006546   -0.10189018586142
H         1.20118082358939   -2.74793233712408    0.43033190193048
H         1.76934218631954   -0.79969581967210   -1.44026131727814
H         4.06909227004247   -0.20015118008670   -1.81345673400495
H         5.06192115793774   -1.51313161670526   -2.09626819824668
H         3.11259272584434   -3.61208980972079   -0.10520229307518
H        -1.16544409804335    0.20734621099067    2.37681831902899
H         2.58262417143967    3.03666440146241    3.14157848322837
H         1.48593738149144    2.89857955371703    1.86161700329915
H         4.48847300241057    1.21316149303546    0.04326913926806
H         3.09210778172902    2.14270213500748   -0.63895421165319
