38
 energy: -53.121096697507 gnorm: 0.164331158907 xtb: 6.4.1 (79825abcba525fcdf90b791dcacef51065a7a4e7)
C         1.09120457511355    1.19864654040930   -0.11857601705622
C         2.44900577725565    0.35612814381225    0.28075783152427
C         3.19601303642307   -0.25481688732877    1.70117740891028
C         2.38866019403484   -1.22960552714242    2.62637509186914
C         0.97141483121807   -1.21287241869288    2.10968190085524
C        -0.09290053184388   -2.15236099239852    2.66057493792748
C         1.07919590549231   -1.62948561379379    0.46538685417520
C         2.22624523291757   -0.98193593636535   -0.42160866441109
C         3.51159146258425   -1.76499755494881   -0.63498341868972
N         4.34521180313982   -1.22396580382963   -1.57952969682298
N         3.86898866877440   -2.93251596642676   -0.18765899317296
C         0.68298902236220    0.38901501350205    2.32391537765195
N        -0.48930478075427    0.94779233794754    2.25963094846067
O         1.59577588948569    1.17781539981732    2.87047930642561
C         2.21202414335226    2.35417143266995    2.26194826891950
O         3.37920905460307    2.23709194649870    1.41140894732614
C         3.45818210840976    1.47531971777939    0.16989314851379
H         1.30508227634071    1.64712057185893   -1.09393539988486
H         0.93101756715195    2.11850120433146    0.46533472339340
H         0.23688583067396    0.53113191582190   -0.08554925246536
H         3.65869717460769    0.43483076818456    2.41184943326295
H         4.03376901735565   -0.78738993193531    1.22283642018421
H         2.34244095504342   -0.91841524108052    3.67420691946919
H         2.97036759710975   -2.15873048047085    2.57346915872991
H         0.45055999110706   -3.09582292733891    2.65672750750045
H        -1.00344616281390   -2.17820504373128    2.03706527542256
H        -0.27837775598265   -1.94868508964366    3.72091922498438
H         0.14868821815571   -1.32378453624862   -0.02524715219660
H         1.33056920371662   -2.70086191992288    0.38130668243914
H         1.92081623776072   -0.87920974727455   -1.47715510821372
H         4.06451267170599   -0.63829607177552   -2.34236950604692
H         5.10940109275097   -1.80241534056483   -1.91027937298167
H         3.24467904324243   -3.35015463669308    0.49932688897008
H        -1.22761203384387    0.35910385010368    1.87475827278203
H         2.68425852401894    2.89685507116975    3.08749401827629
H         1.47744793314897    3.02697057483787    1.80899810935325
H         4.51037972273051    1.19484891148638    0.08676856541094
H         3.30640817667598    2.19558367298220   -0.64150031281223
