38
 energy: -53.126348647694 gnorm: 0.149492979574 xtb: 6.4.1 (79825abcba525fcdf90b791dcacef51065a7a4e7)
C         1.17142095270475    1.13438772009727   -0.07660508730496
C         2.54833093561854    0.33327873300349    0.34205012307146
C         3.27007145302815   -0.39078367235996    1.72179275357042
C         2.37010691957477   -1.35611893026492    2.56808699376587
C         0.96413927302373   -1.13591563884457    2.06748560013302
C        -0.05856493293016   -1.92913601689680    2.86983630720558
C         1.13206940752988   -1.69053338243829    0.46964702081802
C         2.27258638159068   -0.98420772216430   -0.38013463663857
C         3.52853727793826   -1.74544717499992   -0.77247510363967
N         4.49255548277541   -1.02431732112716   -1.42855934282227
N         3.74723291770781   -3.01713661584953   -0.61151134112659
C         0.60690953306415    0.44140828689186    2.34955812927383
N        -0.61067338647944    0.86279059301397    2.17472643586814
O         1.57778284555440    1.20376973145278    2.82948319900528
C         2.15039984057052    2.41507317648275    2.24747014739080
O         3.34910214876693    2.16161131412767    1.47396176005019
C         3.57459875006032    1.43653996041689    0.22844260458852
H         1.27384303817238    1.27012962292343   -1.15793871419749
H         1.17685180510100    2.19770280370702    0.20988361349932
H         0.21808938959032    0.66227159012625    0.13503693694290
H         3.77547682847321    0.35450568684547    2.34135260345415
H         4.08615820476063   -1.01479935947401    1.32318759915385
H         2.45023717399035   -1.05372989605036    3.61645103698051
H         2.66009687120102   -2.39837538631853    2.38352526055728
H         0.35467076715124   -2.91007517313904    3.09891966760650
H        -0.94162257911511   -2.15848772707000    2.24844066103606
H        -0.35089133224499   -1.40117732378166    3.78417791629578
H         0.12108754646156   -1.50960189758261    0.08859728817186
H         1.21405611167036   -2.79115815160261    0.46673502998735
H         1.74791612344521   -0.64714422441613   -1.29069883500076
H         4.09668147527453   -0.22307198133418   -1.88134549296862
H         5.12347506289309   -1.54571528241935   -2.02694812406716
H         2.90346898039056   -3.42738530855535   -0.21667896287110
H        -1.31288574558504    0.16245776007463    1.93763903643437
H         2.50097175918475    3.05478428673777    3.06411306016661
H         1.38365770383494    3.00782151458394    1.73935535095284
H         4.59311641327135    1.04255841209589    0.23812282668132
H         3.59797697667070    2.10045363691833   -0.64267559886199
