38
 energy: -53.125603317891 gnorm: 0.143947222098 xtb: 6.4.1 (79825abcba525fcdf90b791dcacef51065a7a4e7)
C         1.19560874384381    1.28697578440646   -0.05989662265375
C         2.53117052767319    0.39058198709960    0.29461967610477
C         3.25030179504656   -0.34215305527620    1.67114249741110
C         2.31519569451423   -1.25904119273667    2.53306767237591
C         0.93547054638097   -1.09886941512990    1.94439134935985
C        -0.05695323475467   -2.09117457863048    2.53541982055841
C         1.11284723518204   -1.51492393175775    0.30600015951974
C         2.29010024520851   -0.86615290324243   -0.53956199442752
C         3.51705464402168   -1.75841574792552   -0.63589067128640
N         4.35842859015183   -1.41575648115183   -1.66276965515146
N         3.76146266026664   -2.86193202596343    0.00710834579987
C         0.53131546682971    0.42117638322266    2.41476167237037
N        -0.70690786320701    0.64052460788121    2.74540753453337
O         1.56676332039383    1.17752864490610    2.74626889037387
C         2.22998484466456    2.35239176649689    2.18616238845398
O         3.43768256557133    2.24819014683406    1.39240323309508
C         3.58822782768795    1.46339059299496    0.17202585324400
H         0.91405676976880    0.83433252777108   -1.01595160656021
H         1.44838955942335    2.35561787929572   -0.14266242283592
H         0.36621525257734    1.10267810974111    0.61439401908229
H         3.75731517345521    0.36791903974999    2.32953470139300
H         4.10008052897551   -0.91868861969359    1.27144000177230
H         2.23114923691410   -0.97590572440021    3.58648955422696
H         2.78057676728069   -2.24476547986270    2.40569492167408
H         0.35340714349586   -3.09964912615736    2.52717308580451
H        -0.99159793390113   -2.03903367381379    1.95040171492658
H        -0.21111950258262   -1.79031799063643    3.57750128185354
H         0.22053842254055   -1.26237895942421   -0.27711686285825
H         1.10374802751097   -2.61542585187962    0.38917430688177
H         2.00157416949503   -0.53302134804177   -1.55138901983570
H         4.17743387300458   -0.51150729784411   -2.05430503474342
H         5.32938534135637   -1.69168206674853   -1.56741477903767
H         2.94033894563823   -3.12958774049310    0.54585731006043
H        -1.34954349066106   -0.07970277469221    2.41666647887353
H         2.62379585341010    2.91614483310707    3.03829617533625
H         1.44664320645804    2.86285661261255    1.61763247272966
H         4.60409176144927    1.06673837124150    0.23017128483409
H         3.54363100843062    2.15457826855778   -0.67676480203557
