38
 energy: -53.134022164232 gnorm: 0.144528926039 xtb: 6.4.1 (79825abcba525fcdf90b791dcacef51065a7a4e7)
C         1.27941903027187    1.17905371683218    0.02819361271442
C         2.60941377247641    0.30545335507593    0.45347622044678
C         3.29018203636342   -0.52575016408069    1.79307345150882
C         2.29686187213456   -1.42719885618055    2.60469379219849
C         0.92437419526632   -1.11356796282970    2.06270714286355
C        -0.20416590496564   -1.93350477430164    2.67343622440565
C         1.15229118659795   -1.64357220792843    0.46394547251858
C         2.27079543244172   -0.91684381819540   -0.39780732989481
C         3.44127995840462   -1.70778662891380   -0.95923822434413
N         4.24677828638255   -0.98936397248904   -1.80472461338678
N         3.75469853739975   -2.96149382657322   -0.81460697024665
C         0.65348350321736    0.48149785229362    2.34111706643215
N        -0.49058955507370    1.09775568496615    2.29683984561475
O         1.73592586250948    1.00579871895157    2.89568465970262
C         2.23311451267604    2.30689625941810    2.45541869774526
O         3.35942042794400    2.24388481413918    1.54607282370489
C         3.59940904172921    1.44244214942209    0.35108735390971
H         1.52898301473914    1.55222224072795   -0.97013580737643
H         0.88380419839122    1.98921547240997    0.66054720640488
H         0.39589257720784    0.58980117630092   -0.19246338643221
H         3.74551601678116    0.14867069834154    2.52284923831761
H         4.05072719866295   -1.17803099632586    1.33440145018383
H         2.42192843474411   -1.16078270293987    3.65840530118684
H         2.54953939383825   -2.49172097669791    2.51865628776023
H         0.01549182757462   -2.99366029544736    2.78878486077561
H        -1.11872596926692   -1.75634926216958    2.08121887875540
H        -0.39110564455866   -1.56470717612641    3.68795953964238
H         0.20666987964118   -1.66342319036684   -0.08870785893564
H         1.42990799126809   -2.68046655722727    0.72062469254942
H         1.74811267155145   -0.60056261530008   -1.31693015800285
H         3.76009174022210   -0.24068005397530   -2.25896487540924
H         4.96473802964479   -1.50942876327499   -2.29671130596942
H         3.22720931014794   -3.50178005930284   -0.13197964050919
H        -1.28034320766445    0.63089817184545    1.85174216990961
H         2.69380280070084    2.90200960725039    3.25080730253881
H         1.36347357248182    2.85362108740234    2.07826972063380
H         4.61658369332093    1.08969016667260    0.53443174884843
H         3.55270907434166    1.92468838866346   -0.63147690293885
