38
 energy: -53.125415161006 gnorm: 0.156526393465 xtb: 6.4.1 (79825abcba525fcdf90b791dcacef51065a7a4e7)
C         1.25742563836740    1.23543086309639    0.04655441511921
C         2.63549819541778    0.41834804612010    0.42894244290490
C         3.26534803002680   -0.46341595583662    1.76110118298532
C         2.27862761403219   -1.39729697659133    2.54357887390443
C         0.93174483725057   -1.10416375854664    1.93054054240643
C        -0.17687146336536   -2.00125108177125    2.46448190804970
C         1.19758601616160   -1.53211105127882    0.30724785972233
C         2.35978626050939   -0.78282681478178   -0.47356425573213
C         3.46662656301471   -1.70148806555303   -0.96529110394080
N         3.82728772198122   -1.73668596042946   -2.28759611576906
N         3.95601643193838   -2.64202987123513   -0.21242335986731
C         0.60333211851002    0.45697409952360    2.31799696230441
N        -0.59823330342972    0.91649659958983    2.50698629007563
O         1.59879985218140    1.13648631420639    2.86701900162988
C         2.28544111215351    2.38305650595640    2.53766813387162
O         3.45594247371199    2.25745236421868    1.69292229808799
C         3.68148391993042    1.50837486429667    0.46169969049291
H         1.33022065280107    1.34208881384441   -1.04042466813060
H         1.17889331443862    2.17888368605866    0.60911435469964
H         0.33225230528639    0.68556538687179    0.18157042656922
H         3.71135152245260    0.23423588253866    2.47461925218233
H         4.08030078614393   -1.00899297430508    1.25863032867983
H         2.44822163721896   -1.20881214072814    3.60783377187480
H         2.52971660672246   -2.44712274374341    2.34539737003738
H        -0.02812004027076   -3.01401660218386    2.09345148295389
H        -1.18852276533779   -1.77914319384730    2.08270278888195
H        -0.22281520772697   -1.90932228767607    3.55519450243471
H         0.19823546601111   -1.41123790804350   -0.12484889161402
H         1.52155584725636   -2.57291725452172    0.48008076865406
H         1.91359715375256   -0.46109806926954   -1.43034204967809
H         3.68859308865977   -0.88165120987271   -2.79098959376723
H         4.66824100521424   -2.23862437623304   -2.54996968046794
H         3.49058962188960   -2.72875849985048    0.68868163239913
H        -1.26367432985129    0.23904006866450    2.13547638591835
H         2.65431442070180    2.63055999125559    3.53852333685491
H         1.58345420702522    3.16998698732095    2.24547034977600
H         4.66725954784716    1.08562256388697    0.66717548977262
H         3.65530143223038    2.27179792340730   -0.32358659759373
