38
 energy: -53.130194039962 gnorm: 0.147163268464 xtb: 6.4.1 (79825abcba525fcdf90b791dcacef51065a7a4e7)
C         1.06436699851638    1.04410767862702   -0.01015189516745
C         2.49803021691163    0.30883517963480    0.33177354687460
C         3.30768242012068   -0.34703403102699    1.69675133011255
C         2.39445127604540   -1.31535245029678    2.52523825263199
C         0.97539633329935   -1.12575722168271    2.04966176381656
C        -0.11922545016349   -1.88071888504717    2.79177036284220
C         1.13578032741717   -1.74689834445400    0.47570172286122
C         2.20341239700716   -0.98708414903670   -0.42131999630420
C         3.49784768872860   -1.70842794914528   -0.76033271602226
N         4.31438305969189   -0.98610444793387   -1.59179207021387
N         3.98078509263737   -2.84313485880512   -0.34784896425166
C         0.58195200332567    0.46037984535604    2.20618511713668
N        -0.61871290299412    0.95899796015713    2.22670575553053
O         1.63019779338526    1.09144269582570    2.71319448351765
C         2.31425469005820    2.31817211820744    2.31183860531322
O         3.48060947053295    2.23727713623589    1.45596601429450
C         3.48695335680775    1.44681088012986    0.22998966754219
H         1.16515128571447    1.28881933487405   -1.07229938507734
H         0.78385820768493    2.01240805451336    0.43307877418085
H         0.18859033529263    0.40498388671118   -0.04275664889590
H         3.88039298035752    0.29964715719499    2.36649103982477
H         4.14503197810370   -0.91234390739788    1.25680850196225
H         2.32112881453297   -0.99111105525844    3.56755226310995
H         2.70426540407845   -2.36747933412698    2.48650907301042
H         0.18826635011023   -2.88479605951988    3.07945487205446
H        -1.05967949561214   -1.92153608506934    2.21522399888949
H        -0.38678953136257   -1.35462662279424    3.71472869491197
H         0.17561711029222   -1.86523872427506   -0.03820641517529
H         1.52335558410792   -2.76502355670541    0.65265278714372
H         1.67519901581321   -0.84365727913065   -1.37967128748854
H         3.99949050572266   -0.30624239983401   -2.25689047602472
H         5.01632447211153   -1.60794671742897   -1.97724626726150
H         3.29394299071909   -3.34089810744067    0.21483553964371
H        -1.36249830525940    0.29955248937634    1.99934336531309
H         2.80092132382717    2.62754852450677    3.24268685040456
H         1.53570000996068    3.01799866654770    1.99321632588869
H         4.49996201324844    1.04296360280588    0.17155821554803
H         3.25238941297161    2.19029039095605   -0.53968092352725
