38
 energy: -53.125793340439 gnorm: 0.151557138012 xtb: 6.4.1 (79825abcba525fcdf90b791dcacef51065a7a4e7)
C         1.22194521023019    1.13059496927265   -0.07490217179199
C         2.61415045205518    0.37119091782247    0.37006856142460
C         3.30963380572551   -0.40150755523849    1.73685509779919
C         2.39647844779994   -1.33974242955938    2.59934270875643
C         1.00264270687882   -1.12271610301683    2.06459251294260
C        -0.05124227970881   -2.07073815878419    2.62089256826832
C         1.19773381417700   -1.63775257500345    0.45662285532608
C         2.32534573771750   -0.91705063969768   -0.39829461528900
C         3.48559292523646   -1.82312468538943   -0.77735334943681
N         4.30838197723709   -1.18659695089065   -1.67046954610382
N         3.81356069040804   -2.99416890343386   -0.31689299029529
C         0.57380413319491    0.43236142411968    2.36948614013092
N        -0.59698437176646    0.99325982866083    2.29679106803292
O         1.64809971167787    1.12708090833660    2.71208195434513
C         2.13209006019575    2.43846689220897    2.28792915470785
O         3.34594660458341    2.37640635718252    1.49916673907584
C         3.51277752803810    1.58312690592174    0.28641354644383
H         1.37077269918375    1.16193880861233   -1.15890701615008
H         0.99250690055725    2.13218567687555    0.32122703880698
H         0.35020484137453    0.52974778959600    0.16084866996675
H         3.77754923139349    0.27328452904900    2.45828148308309
H         3.96255726196056   -1.14830675316473    1.25699974978928
H         2.40981664711236   -0.96755338927894    3.62804313447991
H         2.73490673251808   -2.38322459554247    2.56667794207263
H         0.26165304614711   -3.07666671754145    2.34577657105945
H        -1.03581015793709   -1.80274237547735    2.19978697513154
H        -0.00937150745362   -2.06270385685217    3.71560622011591
H         0.18521692437770   -1.61920394006423    0.03890892785361
H         1.43496545892999   -2.71387347735916    0.51818707544810
H         1.87126208553572   -0.75619655461656   -1.39124569541202
H         3.70606184026027   -0.55251977349887   -2.15922532734048
H         5.00593859741164   -1.76628849997736   -2.12363282893905
H         3.09858542189351   -3.42226183998311    0.26764184943971
H        -1.48797595550298    0.52840706977090    2.12409305078345
H         2.35287338053460    3.04080521371188    3.17532979333029
H         1.39300646521932    3.02590494920064    1.73466907761819
H         4.55709848605104    1.28511713716410    0.40164076316503
H         3.26515080316282    2.20067571539469   -0.58392507604490
