38
 energy: -53.126260112428 gnorm: 0.151151866059 xtb: 6.4.1 (79825abcba525fcdf90b791dcacef51065a7a4e7)
C         1.11027568638321    1.27999637388164    0.06609235091905
C         2.48263237789205    0.40037837817915    0.30239335889786
C         3.31232578939830   -0.31097391857435    1.62695072223563
C         2.38900871157569   -1.32834012584861    2.38224790289683
C         0.94969898459770   -1.15114644710051    1.96652422363794
C         0.02520427142044   -2.17303726093279    2.61455030942481
C         0.92548166035910   -1.46573632933522    0.29639361519169
C         2.20581134448222   -0.89845104372364   -0.45243687315192
C         3.39082838982461   -1.82506859096203   -0.67139742616124
N         4.52018311765016   -1.15059985899311   -1.05799246568208
N         3.43516623595936   -3.12314002965414   -0.73445166426165
C         0.66543990354337    0.39473953641664    2.44040403068956
N        -0.45051336752861    1.05620162648030    2.35234988661886
O         1.75784981958924    0.98903351216593    2.89600615262920
C         2.30627959463253    2.25424456404786    2.41397790966255
O         3.27095763263233    2.33101142425364    1.33557701644120
C         3.49098006499807    1.51496190463755    0.14664957699383
H         1.29323514931823    1.69549006030785   -0.92994449102007
H         0.97459164657162    2.11923712285960    0.76609880636386
H         0.18102873799723    0.74995135047162   -0.11301496925247
H         3.86270732852464    0.31848230494054    2.33094663481545
H         4.13046350236885   -0.91219868318400    1.19862993911258
H         2.56702581749927   -1.17696048487707    3.45104220743671
H         2.74272305671924   -2.34894022959512    2.18803844297805
H         0.49477376377118   -3.15536861679185    2.61078799919310
H        -0.93393892209025   -2.09588300566729    2.07360934987532
H        -0.12588585522593   -1.95724037628477    3.67795012307786
H        -0.03306861791860   -1.17364778497296   -0.14619542623253
H         1.06289159139426   -2.56082604704337    0.29788780484558
H         1.85098484901945   -0.76649476352914   -1.48911596388157
H         4.48727616884760   -0.23861393353283   -1.47142252818167
H         5.27494147288613   -1.69091743337203   -1.46589101531669
H         2.57921728398423   -3.60724745054286   -0.47153425020829
H        -1.27681533362108    0.46209910577807    2.28874197266211
H         2.98063467855139    2.51057876060572    3.23773432431038
H         1.50510511519970    2.99284545919457    2.31391336882292
H         4.55798070806501    1.28221399376762    0.15225525559782
H         3.35473015915720    2.15336665466943   -0.73315163820217
