38
 energy: -53.127653912462 gnorm: 0.155783093657 xtb: 6.4.1 (79825abcba525fcdf90b791dcacef51065a7a4e7)
C         1.21889377158240    1.22161519770585   -0.12968400337838
C         2.63404482660025    0.45199981541236    0.21378150354679
C         3.29905552228683   -0.25094839737889    1.63240409312156
C         2.48952169863243   -1.36436571509496    2.38272344583313
C         1.04921499505802   -1.17346163857225    1.97663414727243
C         0.08051164886353   -2.10044626493713    2.69857768362209
C         1.04649262914809   -1.40547114278061    0.29287236937201
C         2.30890661651648   -0.85863479399002   -0.50027625496674
C         3.38793515852534   -1.92408676963693   -0.60675960147554
N         4.47436764466341   -1.40519447341215   -1.26267205564238
N         3.49550041470572   -3.17624009278284   -0.27288400528609
C         0.66506314937636    0.36369060221069    2.40642381601796
N        -0.57238273499782    0.76122633699703    2.44289825930708
O         1.58804687134990    1.16258618451213    2.92021847870548
C         2.09355389923372    2.39131378660076    2.31311339191526
O         3.24135442759902    2.38949217797644    1.42880802250069
C         3.49701414054293    1.69175077009734    0.17354303978563
H         1.03080703862388    1.08679268275004   -1.19956475692207
H         1.37170614119272    2.29744759113815    0.04913792422248
H         0.31954244876956    0.86750776748583    0.36255799394022
H         3.60234785674103    0.55754549745051    2.30255080572295
H         4.15960351860827   -0.75514773093800    1.16387510218724
H         2.69793237292985   -1.30572877243718    3.45512908325059
H         2.78706174130933   -2.38209635375008    2.09961569354786
H         0.33187396890252   -3.15838650105954    2.75393103409933
H        -0.79971839256038   -2.11516530834262    2.03261672386703
H        -0.11554120947752   -1.66353428786272    3.68391361298452
H         0.06663824769457   -1.07358842148396   -0.06734795193091
H         1.04441159518310   -2.50880508941772    0.32035111304550
H         2.16488889844879   -0.63613187408807   -1.57161615567995
H         4.43323926189219   -0.55270683050595   -1.78736138273684
H         5.10947773995113   -2.11491973646919   -1.61039278486737
H         2.74056899928969   -3.45883228866155    0.34869011152436
H        -1.25988258924454    0.08536061715657    2.11074137691708
H         2.39438046544635    2.98474345446874    3.18281519696569
H         1.17922787813782    2.73338075923745    1.81872198415765
H         4.56599557335142    1.47049981730085    0.14160410514911
H         3.32943349730287    2.36883832245579   -0.67123148977605
