38
 energy: -53.130872242139 gnorm: 0.137770720823 xtb: 6.4.1 (79825abcba525fcdf90b791dcacef51065a7a4e7)
C         1.12705615664122    1.03351972874542   -0.07830333228434
C         2.52422740384059    0.28428840247066    0.36834399167644
C         3.25375714152155   -0.43407874160723    1.74696667200515
C         2.35559469824695   -1.28379888451087    2.71096988015651
C         0.98486141146582   -1.09916097528344    2.10861168363436
C        -0.14029938889365   -1.92757281014234    2.71411657003860
C         1.17519785309385   -1.64299621155605    0.50957921748484
C         2.31252057257213   -1.01622040977086   -0.40445192510714
C         3.60852955679236   -1.70344382244503   -0.80309200553283
N         4.31047015270236   -1.07085791900161   -1.79653066997354
N         4.05566060829051   -2.86165060330474   -0.41635950398766
C         0.55666451528008    0.46580600886906    2.35892066728838
N        -0.62599604788435    0.99387130797846    2.24447245465781
O         1.60998689987974    1.13194599019901    2.80712548526798
C         2.17011609128107    2.37120160806455    2.27384668023911
O         3.36068426302321    2.13841138934150    1.48150740527017
C         3.49429167281254    1.43227703992407    0.21209080480719
H         1.23305752390002    1.16175292740248   -1.16020837268953
H         0.97519842099011    2.02063700725208    0.38568260140116
H         0.17063810508597    0.57258641448963    0.14380485924286
H         3.80223494068741    0.34639100988385    2.28061853573331
H         4.04220713004665   -1.07562383449710    1.32147196374273
H         2.36994476647111   -0.76030743855030    3.67153114633051
H         2.64647241996034   -2.32807791359027    2.88222170263600
H         0.29775495238081   -2.92060156308110    2.80064320830035
H        -0.93278900303674   -1.94415638096589    1.94586480567888
H        -0.45639725695309   -1.61798789567117    3.71634159987339
H         0.17090537613451   -1.48796613178009    0.10045608992501
H         1.25406666763767   -2.73315563253124    0.66267183219411
H         1.81313243894502   -0.89441136545055   -1.38107462675639
H         3.86223288695661   -0.30178429353169   -2.25624224164725
H         5.02492359314823   -1.65570327689910   -2.21545390468397
H         3.57213716729590   -3.25488020506646    0.38844465605634
H        -1.30209065314107    0.27241461897728    1.99512320222818
H         2.56783866043005    2.95595740269140    3.10985747499410
H         1.37043310890654    2.90519295802272    1.75155833027144
H         4.53010793303345    1.09397140128545    0.13910196785779
H         3.42108466863323    2.10360662484305   -0.65054015448757
