38
 energy: -53.127436483423 gnorm: 0.154436616485 xtb: 6.4.1 (79825abcba525fcdf90b791dcacef51065a7a4e7)
C         1.12567074656739    1.07844571119745   -0.07334373278229
C         2.54607518890044    0.33908837920712    0.31231267721737
C         3.26197061812310   -0.31274161476148    1.73057811891854
C         2.41313403585175   -1.33294587839585    2.56525289692749
C         1.01465896889414   -1.13372464014622    2.03571095391692
C        -0.09028582736507   -1.96532122790531    2.67323213769893
C         1.10556487631485   -1.59398673590406    0.40206947659606
C         2.25017623141157   -0.93374478972410   -0.47869681101334
C         3.47053252980517   -1.81858060834904   -0.67523009950447
N         4.49985315782238   -1.11443858843376   -1.24486944070761
N         3.65730703607565   -3.06995744672716   -0.37505939350209
C         0.63242907111905    0.44268949653471    2.28858959433310
N        -0.59248861950616    0.87873185259172    2.27958498174411
O         1.62893716908328    1.16772866395587    2.77377810666139
C         2.17319804025810    2.37810650157579    2.16332657610586
O         3.42491323179554    2.23216075853890    1.44823616156976
C         3.45847245016046    1.53485196301885    0.16740464024275
H         1.30516986528180    1.60139020804076   -1.01806997764953
H         0.73534571346525    1.85679127710073    0.60087343296775
H         0.28791710240104    0.39459679931514   -0.15728752244635
H         3.58238781372993    0.46267345488792    2.43115611110118
H         4.13003467893564   -0.77120245500015    1.23002075004100
H         2.61548019987109   -1.22478491900281    3.63496518751782
H         2.66880180630709   -2.38885970102103    2.40989614117271
H         0.33733994008214   -2.95435821180672    2.82952229155896
H        -0.95594355798989   -2.07704098904481    1.99745039940863
H        -0.52232596357753   -1.63088945752890    3.62281751813237
H         0.11670174198503   -1.58228993433855   -0.06913357719915
H         1.45667091091437   -2.63719027938095    0.48303948006579
H         1.89245464734144   -0.63994611468701   -1.48056279532260
H         4.57360896529588   -0.13497729337970   -1.44220485453680
H         5.19377741107766   -1.63350380324077   -1.77120101042492
H         2.86922291013972   -3.54851114505654    0.05626871998677
H        -1.22371059119944    0.08398276503033    2.18103837971677
H         2.64896600081336    2.92681347660864    2.98283992945062
H         1.46629071970055    3.03658439348058    1.64940668360310
H         4.51283367383599    1.28923139372985    0.02357715746594
H         3.20670608247171    2.18895563990235   -0.67457928222838
