38
 energy: -53.131142998632 gnorm: 0.152900653295 xtb: 6.4.1 (79825abcba525fcdf90b791dcacef51065a7a4e7)
C         1.08794283618451    1.16594250983957   -0.02924855384102
C         2.48342477326262    0.35985123387545    0.31101002396022
C         3.32234651735143   -0.40259572147262    1.60087451644873
C         2.42875179133449   -1.34053785394519    2.48392337681381
C         1.02225184550612   -1.19265937676658    1.95882706566474
C        -0.08128873871211   -1.94683574970437    2.68841963476407
C         0.99435625804136   -1.59009927921235    0.30650963665817
C         2.19039805664689   -0.90975932120240   -0.48622321038972
C         3.41397270589182   -1.76085616773187   -0.78510186763212
N         4.52937519749362   -1.10434518515660   -1.23751373883149
N         3.39460933548117   -3.05889266017068   -0.86031805807069
C         0.75163858324154    0.36449846743207    2.40285039726934
N        -0.41490109678863    0.93274802110783    2.48600675643125
O         1.74387183423612    1.06029628099614    2.93713182129621
C         2.32300392561761    2.30276266319527    2.43238557462330
O         3.40637702705396    2.24006545743917    1.47227248298008
C         3.44167989075708    1.52314821392742    0.20235968177619
H         1.37815879050191    1.62714439943101   -0.97859889781981
H         0.75144305890303    1.98170863692992    0.62956686405988
H         0.17367681895157    0.60600516081949   -0.19391448108283
H         3.69316656036311    0.33849891450826    2.31362725875426
H         4.06842680790784   -1.00543240301687    1.05844353957806
H         2.54057601221247   -0.98755613097458    3.51340208053522
H         2.76367872709041   -2.38540859900074    2.46101488951154
H         0.14554610268618   -3.01163127382320    2.67289528173197
H        -1.07363373226297   -1.78154946034937    2.23404377268283
H        -0.22302398339811   -1.54356448093391    3.69713123522157
H         0.03931269024512   -1.32346310771775   -0.15912579653581
H         1.21683107150112   -2.67071719018521    0.27692763636508
H         1.85089230504145   -0.68964976748314   -1.51301699238306
H         4.78768869615039   -0.14348989099253   -1.12022416079397
H         5.23147438218485   -1.77638963662638   -1.52629994945316
H         2.50488296985829   -3.52624947801508   -0.69876692504467
H        -1.21480916769240    0.33758600985400    2.27221252447607
H         2.72611445999449    2.77147170259044    3.33618331686078
H         1.52356677930326    2.91953904728688    2.01058954678430
H         4.47432427293442    1.16874640305145    0.17518738200282
H         3.29781873160443    2.17485005806875   -0.66641158486616
