38
 energy: -53.122012771126 gnorm: 0.143296035353 xtb: 6.4.1 (79825abcba525fcdf90b791dcacef51065a7a4e7)
C         1.07133584548238    1.07209450803407   -0.16930861750493
C         2.48536873660184    0.36165554991043    0.28754624838543
C         3.28050165660142   -0.41728743414710    1.59516887766733
C         2.45410944411885   -1.43722878344537    2.45238403505361
C         1.02148233502715   -1.15057283541010    2.07655932910625
C        -0.00469054499803   -2.04305312772991    2.76164128077690
C         1.07563896474000   -1.53086833041708    0.42086251837716
C         2.26546437363347   -0.95328251367925   -0.45806519575242
C         3.52133058098501   -1.77915948668773   -0.68512577064780
N         4.63517698991775   -1.21295971614486   -1.24954572842457
N         3.68244946466813   -3.02221388818732   -0.33902229516599
C         0.63866175815900    0.41313362333952    2.39811694801569
N        -0.52184393715001    0.99870792495429    2.42920717779703
O         1.75392306150080    1.06011231179811    2.70098468039835
C         2.14621236170439    2.41593200607956    2.32449095272996
O         3.20377128089037    2.44946326550257    1.33459693913816
C         3.38166413570529    1.57358637522342    0.18173573508464
H         1.22698192766371    1.14350863381467   -1.25045286311870
H         1.15945447510024    2.08282440224763    0.25894882186756
H         0.08037908563952    0.72640919169556    0.10461366272171
H         3.71442658222715    0.36153722206390    2.22753471418027
H         4.13572182991523   -1.00465349961268    1.22384854252905
H         2.64490039169662   -1.28805967646928    3.51928353544274
H         2.65370336571853   -2.45682458376598    2.09877068341223
H         0.09205900186765   -3.06834222498587    2.40822035752374
H        -1.04862158855955   -1.86305982607660    2.45126094569120
H        -0.04507549677901   -1.85002771268310    3.83928961515746
H         0.16541789516304   -1.09426547562095   -0.00445500006597
H         1.01309804196977   -2.62088372687280    0.25943061210257
H         1.79478197833950   -0.73445098694382   -1.43202037508607
H         4.61257103234307   -0.41442929023388   -1.85416440087272
H         5.30457200271939   -1.91368255771933   -1.54767707832855
H         2.84977737168757   -3.39367313497092    0.11353641891461
H        -1.34050316380577    0.42667410219432    2.22340852625878
H         2.52591411137561    3.02729583627093    3.14977724908282
H         1.23270771349193    2.93588697186567    2.02021995369104
H         4.41948643696091    1.28773342567895    0.36587253875103
H         3.35492905862387    2.11889189114734   -0.76805475240795
