38
 energy: -53.127818013192 gnorm: 0.139327099579 xtb: 6.4.1 (79825abcba525fcdf90b791dcacef51065a7a4e7)
C         1.13960516970962    1.14316597286302   -0.05310092935545
C         2.52496904934404    0.35121998846420    0.35496450688986
C         3.34794532952902   -0.39285902166107    1.66565972535946
C         2.36699952908328   -1.35289372756226    2.42335424182794
C         0.94336985895753   -1.11822618492707    1.98284770575453
C        -0.08153399565697   -1.98458155367055    2.70249318508234
C         1.07905544860291   -1.57446321979523    0.35118391273873
C         2.27424743173491   -0.91567508774733   -0.46080018158148
C         3.42811709080559   -1.84075106238492   -0.81243708853550
N         4.21972149958965   -1.39844274827451   -1.84080071278552
N         3.89843276973733   -2.85407511122699   -0.14692322009464
C         0.63299653979274    0.41765167364636    2.47261950409504
N        -0.52142407468716    1.01519831155036    2.44281323814540
O         1.72027652732358    1.03585046435367    2.90824612417607
C         2.27875745300587    2.28924338957288    2.40725640208427
O         3.29934485655553    2.33269459925968    1.37965788283496
C         3.39579402268827    1.56752645422010    0.14146951613634
H         1.25642856718843    1.20389996210956   -1.13977578377952
H         1.11885108073484    2.15737688682578    0.37548947349916
H         0.18880633513432    0.71838384126962    0.25032744803680
H         3.83670881027830    0.24284356102966    2.40845022108898
H         4.15064282810060   -0.94326415492673    1.14892947761961
H         2.46676189294750   -1.14780876753272    3.49336115453126
H         2.54561607797247   -2.42798251724437    2.29398670740999
H        -1.05798956470433   -1.51893147256340    2.82573717638404
H         0.32469448275507   -2.21982892925391    3.70157409687759
H        -0.29815263513887   -2.84916907639299    2.06548417641140
H         0.19895086298119   -1.36718673928962   -0.26725914628212
H         1.32110367401530   -2.65104821126058    0.32921525258947
H         1.84730473790246   -0.63595724161198   -1.43931728591948
H         4.18368571215850   -0.40850058413582   -1.99060577995129
H         5.16279956178687   -1.76959616404473   -1.81193196617344
H         3.32883982348948   -3.17517840241904    0.63319903229051
H        -1.28301119362597    0.42057053207295    2.11695808617790
H         2.80683289897839    2.71870110482972    3.26500871100699
H         1.34533596059718    2.78563514493038    2.12486607578901
H         4.46415022754523    1.36803700602210    0.03417375199575
H         3.10792795672120    2.28110716767854   -0.63834491439566
