38
 energy: -53.131163609346 gnorm: 0.153922483196 xtb: 6.4.1 (79825abcba525fcdf90b791dcacef51065a7a4e7)
C         1.20203907737929    1.18377839365072   -0.09881323201590
C         2.54991404939222    0.31766137464537    0.28329052047109
C         3.24338963339148   -0.36947018517789    1.69602096435155
C         2.42190134813054   -1.47190208042842    2.44956139674391
C         1.01071745985053   -1.15254701892935    2.02246814266611
C        -0.09509597334775   -2.00813970939299    2.62581458229804
C         1.02968438210570   -1.52254796488745    0.36366463275887
C         2.26089210850015   -0.97537622714879   -0.47689139881632
C         3.49171476517892   -1.84258618337976   -0.68629943717279
N         4.53776625718163   -1.09988641715486   -1.17001345796961
N         3.64105422014852   -3.08834365581943   -0.34466042748421
C         0.69019580732920    0.40549066341361    2.42856323141858
N        -0.53909851183819    0.80341305943914    2.57392685477090
O         1.65149146715645    1.23268532339623    2.81037165949646
C         2.20557560840239    2.42668823846609    2.17694191437728
O         3.37477717844045    2.31302047007734    1.32871276756611
C         3.49929646211585    1.48385594502077    0.13503094638088
H         1.45650725008830    1.30212282972824   -1.15684872727941
H         1.08378202962993    2.19017583716358    0.33237546615372
H         0.22260958889058    0.74754179976982    0.06532869041607
H         3.40858523936267    0.30694037140329    2.53859108496193
H         4.16265693448978   -0.71734293163999    1.19781275767712
H         2.49836438872698   -1.22932072392718    3.51362664275749
H         2.63881701800104   -2.52444447486026    2.22694553130561
H         0.17683588043267   -3.05611936029230    2.51059183971936
H        -1.07610228728996   -1.94352167575789    2.12384179423424
H        -0.16420648790268   -1.81156108806501    3.70135922062603
H         0.09865057366960   -1.20749967037563   -0.12000886515002
H         0.97136444489966   -2.62468164920752    0.36597337007995
H         1.80966261413647   -0.77496936960756   -1.46393085223900
H         4.32062613045855   -0.27632339864980   -1.69757363546918
H         5.30787283430264   -1.67654989791768   -1.48998155255014
H         2.77949101284633   -3.50234812398194    0.00525858955229
H        -1.30673452954490    0.17337843512054    2.34247486438182
H         2.59236926874794    3.07264142120955    2.97203421734342
H         1.45718111573670    3.04754151559941    1.67507377481182
H         4.56781841898080    1.26566794614776    0.07716714270939
H         3.29281710306837    2.17231120997206   -0.69175225868164
