38
 energy: -53.128737023252 gnorm: 0.138240468502 xtb: 6.4.1 (79825abcba525fcdf90b791dcacef51065a7a4e7)
C         1.22169890696773    1.18089971345157   -0.01170270907603
C         2.58497153702049    0.30829060264854    0.29320708710483
C         3.31399028109507   -0.47524291382913    1.63614133103068
C         2.39451627434980   -1.36903549003179    2.53820821128420
C         1.00254998794296   -1.13098969346632    2.00754792551876
C        -0.14877256187514   -1.92798217546236    2.60600302730948
C         1.18537689172850   -1.60612988379081    0.38591120869756
C         2.25759709328288   -0.91554570455484   -0.56026062998510
C         3.44774326292759   -1.80618273101955   -0.87829683633341
N         4.24052566982420   -1.19200002604532   -1.81322013757970
N         3.79017594073727   -2.99327001923914   -0.47271726186542
C         0.65812171729406    0.39382724094903    2.50897714716634
N        -0.51197532175913    0.93054530337954    2.69185412205885
O         1.68045965075167    1.11206314348036    2.94838629235622
C         2.15872192119881    2.35735675593272    2.35307588031916
O         3.29912870885587    2.30413584927480    1.46083977810635
C         3.57354508209756    1.45099019915699    0.30986918408540
H         1.04982455518221    1.16264330260998   -1.09259329949289
H         1.31114685073614    2.23863985539342    0.28143394287287
H         0.22927548323536    0.89559970042769    0.32030136784565
H         3.85062155283547    0.25331088361144    2.24931461853161
H         4.14781482392639   -1.01696905359311    1.16122169981729
H         2.41440613730069   -1.07217412700274    3.59101630540572
H         2.65909196728973   -2.41038426250406    2.31449373008413
H        -0.13949510501015   -2.99451395308605    2.38712303620243
H        -1.07874753608955   -1.50079899219910    2.19225594866931
H        -0.18074906106418   -1.84200405276643    3.69769939374498
H         0.18628196698858   -1.51720383339786   -0.05445332614120
H         1.36260135866383   -2.69256305864920    0.46565862180695
H         1.82687336457976   -0.61320381353045   -1.53035562054373
H         3.85577548106115   -0.47263513614051   -2.39477586662425
H         5.21386023289168   -1.44227218262977   -1.94726550802684
H         3.21515236426512   -3.43073040285514    0.24429771123897
H        -1.29531454208004    0.34900006944949    2.39526767636596
H         2.49466935887294    2.95915019718562    3.20396988201647
H         1.29278025711909    2.94594570219416    2.03506199077071
H         4.60406051448929    1.12154001335407    0.45884541337835
H         3.46955803690098    2.11971641847524   -0.55162184332600
