38
 energy: -53.123724437179 gnorm: 0.145322624894 xtb: 6.4.1 (79825abcba525fcdf90b791dcacef51065a7a4e7)
C         1.18960731786009    1.17394338697165   -0.05902414403474
C         2.57822615732515    0.37604307095553    0.32571175210075
C         3.35228650978152   -0.32742592904460    1.68763223465103
C         2.49937821439678   -1.34551301345484    2.52073990285876
C         1.07270408276211   -1.12445494858955    2.08305219931680
C         0.02015256262524   -1.99863766066669    2.75150490665294
C         1.19820030181670   -1.61019131288037    0.45910625160860
C         2.29986682296857   -0.91201203653058   -0.44680787788944
C         3.43565763550895   -1.88311906678123   -0.72566198259826
N         4.51206255235261   -1.22744905069240   -1.26534263260294
N         3.45534707523825   -3.17751726233886   -0.60287436410737
C         0.58609973724234    0.42878801465371    2.29701786079919
N        -0.63686894039192    0.86980488805178    2.27490295223167
O         1.61607808773015    1.15680506884974    2.70106465966955
C         2.12608483663521    2.46107017330705    2.28552753009416
O         3.26625191460812    2.36169663689743    1.39693915653309
C         3.42738643066216    1.61418654401481    0.15469945338247
H         1.32336370301517    1.43512776576333   -1.11358116518556
H         0.93124812235499    2.11714990605253    0.44729218282168
H         0.42917898921065    0.40215343007029   -0.00787645442282
H         3.82480533195758    0.50545499949794    2.21468114318566
H         4.10588655844866   -0.98470470296049    1.22465187450441
H         2.70735701038535   -1.26498654354677    3.59180827352019
H         2.70626224809506   -2.40720159049892    2.33507329299838
H         0.50842292922245   -2.90463859137859    3.10680607781667
H        -0.69620803084939   -2.31804126024518    1.97475886682397
H        -0.56611959667165   -1.53974755693660    3.55519670898543
H         0.15798701750174   -1.52787202434258    0.12564066202038
H         1.48276879625599   -2.65940754980600    0.64955645143659
H         1.87894289761974   -0.71941732539119   -1.44868021000186
H         4.37981123169555   -0.26627189126331   -1.51508985796940
H         5.22543504445902   -1.80860107534686   -1.69119060947166
H         2.64457007982231   -3.58650899105727   -0.14298241582309
H        -1.30030236219982    0.09752929248140    2.33169390884957
H         2.42350440307317    3.00109376042155    3.19048761170187
H         1.34734018784739    3.15431141935394    1.95326545588799
H         4.51306074722927    1.49585138030505    0.15590849505450
H         3.10302211367674    2.21330598315986   -0.70321577125588
