38
 energy: -53.123102670869 gnorm: 0.160422298668 xtb: 6.4.1 (79825abcba525fcdf90b791dcacef51065a7a4e7)
C         1.07839648913391    1.07924323616779   -0.16356151893748
C         2.50728751269591    0.38840334630464    0.27682421576621
C         3.20135452346475   -0.23453513906236    1.71872715888706
C         2.35645789346648   -1.25923640878769    2.55188936678045
C         0.92436089499383   -1.17159388609217    2.08578501647104
C        -0.07093702852975   -2.17309985902694    2.65609804252282
C         1.14907090659597   -1.55443106877559    0.44510508990774
C         2.28606699504431   -0.92646721540428   -0.46851687178688
C         3.51980497022124   -1.78944142280769   -0.67826750965961
N         4.43796386774942   -1.34935982211370   -1.59648225696728
N         3.81334965773564   -2.99318672917210   -0.28360322352721
C         0.62633508160798    0.40966494824829    2.41125374337714
N        -0.50866079854441    1.03893696179367    2.49149350831736
O         1.72122829784994    1.08590829864392    2.72433812904252
C         2.13461950830802    2.40583202075678    2.25445032960216
O         3.29923016940627    2.29904904039976    1.39904119874805
C         3.45242726115585    1.56059959772475    0.15039464029475
H         1.15501088289459    1.00094576840897   -1.25268883188508
H         1.11373137508830    2.14744629515817    0.10183989975804
H         0.24113979374916    0.54480660101385    0.27222027619840
H         3.60184533560480    0.45393073946843    2.46730385747191
H         4.05067391751752   -0.78434324072191    1.28209590026759
H         2.44820489979543   -1.07946078983467    3.62715229736421
H         2.72662547751185   -2.25068419925657    2.26126422457230
H         0.35505851800978   -3.16724782905812    2.53086958548313
H        -0.96883240164738   -1.82496884602170    2.11654797509859
H        -0.18625966601952   -1.94754576738080    3.72195062635808
H         0.18126726634165   -1.34463023811709   -0.02325284978732
H         1.23551866228391   -2.65471663072020    0.44318986557341
H         1.82745283125703   -0.76313492766229   -1.45897810080036
H         4.46686755520855   -0.36479056792526   -1.77954939088137
H         5.31606841834323   -1.84351440739228   -1.70930125399499
H         3.13522278328410   -3.46542571431809    0.31076068160598
H        -1.34261213608405    0.45847660308831    2.40564685630406
H         2.52956262150176    2.93304672909754    3.12915097374269
H         1.31363761915074    2.99702387429858    1.83743033297149
H         4.49919796357399    1.25015478687820    0.12613532761741
H         3.29826159440398    2.21608196225275   -0.71375271962294
