38
 energy: -53.129086262901 gnorm: 0.146254715864 xtb: 6.4.1 (79825abcba525fcdf90b791dcacef51065a7a4e7)
C         1.21924366162470    1.16139533560426   -0.07142688167496
C         2.57582911211919    0.30639072907441    0.30483362551165
C         3.32130872716724   -0.31772545169419    1.72032104504773
C         2.34749570702339   -1.20968361402826    2.56537791929072
C         0.93871449069365   -1.11078401240152    2.03491524085250
C        -0.03712106462555   -2.08908639970027    2.67488285764080
C         1.19430443966931   -1.66033837542265    0.44697527598513
C         2.28662293029072   -0.97286922917317   -0.47824380839053
C         3.52708963078491   -1.82739548339497   -0.68283256878398
N         4.47736192314748   -1.06132947921805   -1.30727744195341
N         3.67458066445496   -3.10047600118426   -0.46273352266600
C         0.56198224253912    0.43068709706131    2.45571023734527
N        -0.64061728607049    0.92490320056264    2.46763322725544
O         1.66261214201797    1.11108974175385    2.73817107378682
C         2.14759546113587    2.36741017629461    2.17218908429576
O         3.30557829892023    2.31101097937707    1.30308595264893
C         3.52133309843038    1.47197593315432    0.12947390893794
H         1.12618555954622    1.05736456293852   -1.15711392281444
H         1.24900715969374    2.24593185796116    0.11735582277798
H         0.26500065016557    0.85730221500113    0.34507607570473
H         3.75791646543345    0.46040677803183    2.35169189768818
H         4.08266450409549   -0.95875558225075    1.24735488079302
H         2.33935069481708   -0.99468886660200    3.63805591401950
H         2.74890624010299   -2.21979280027533    2.41370474314116
H         0.35762442011405   -3.09910893229521    2.77242794026158
H        -0.96425256835708   -2.17531594376552    2.08199399178474
H        -0.33440757719175   -1.82382187553599    3.69540779674225
H         0.30231311514201   -1.51176155159515   -0.17132550100949
H         1.42790081575765   -2.73370292532439    0.55387004000751
H         1.87092764055573   -0.81633485281135   -1.48854687167048
H         4.16071828845923   -0.11977809130282   -1.43744434705644
H         5.15975194195884   -1.52119707648562   -1.89960349293882
H         2.88016319640532   -3.50158761735132    0.03137632537109
H        -1.43062953190077    0.29939635653595    2.31142647970217
H         2.52204444227569    2.99156977441550    2.99026572163036
H         1.28358137522107    2.94856312184753    1.83578804088987
H         4.57356640084207    1.17960838032553    0.12503550933826
H         3.31976909309255    2.12037865871246   -0.73024739295773
