38
 energy: -53.124448293867 gnorm: 0.145958436428 xtb: 6.4.1 (79825abcba525fcdf90b791dcacef51065a7a4e7)
C         1.15028594187326    1.13679431576960   -0.11526925698146
C         2.51122844729030    0.36452223859186    0.39889048180786
C         3.27593859687191   -0.34952948421389    1.76058574930533
C         2.40581394421613   -1.33518846125245    2.61462424652359
C         1.03681344632562   -1.12929749219328    2.01522216087461
C         0.01593294310148   -2.03965527936258    2.68450601257567
C         1.05535057975582   -1.52757951177744    0.36297599642068
C         2.31654584949097   -0.92736128938076   -0.39262205973997
C         3.48401559405992   -1.85058575714570   -0.70165313946376
N         4.38819897158403   -1.36334549241631   -1.60986856377853
N         3.66256705999991   -3.11194086545134   -0.44082020232956
C         0.68650665516849    0.41603101358074    2.44460988916570
N        -0.50824831595408    0.91915293048243    2.34427904550264
O         1.70553738818022    1.13325965218447    2.89324953801855
C         2.07771265716980    2.41441768281930    2.29826621409370
O         3.24230695484710    2.45719311665437    1.43725763920455
C         3.44101916789240    1.55237086937435    0.31044562503045
H         1.17232882654487    1.10816436726059   -1.20929530529557
H         1.25135993425813    2.21839783057137    0.06545740863419
H         0.11562044982731    1.00612409176408    0.18292474631789
H         3.81077221831411    0.38526000493563    2.36786051341694
H         3.96386423518576   -1.01848347109186    1.21879416384399
H         2.52114591766042   -1.10033689599580    3.67691913964486
H         2.66715410450907   -2.38326512109022    2.42047900727556
H         0.48667266399928   -3.02141671030312    2.67874590894213
H        -0.93619183996155   -1.97169253994692    2.13010089048036
H        -0.20486745455496   -1.81884553077059    3.73460407210746
H         0.13290801495429   -1.25490135376691   -0.16120505673473
H         1.27077578082068   -2.60482540145127    0.25696421756561
H         2.03231387759614   -0.64323248780478   -1.42048434050063
H         4.33401409281980   -0.43773814748024   -1.98939545000775
H         5.14114528205088   -1.99519482955274   -1.85851038587843
H         2.97993389005717   -3.66936669459892    0.06851521606136
H        -1.12271943992284    0.34335034591971    1.76925266132847
H         2.45190232966935    3.09210851016985    3.07270398732513
H         1.21047111786816    2.89555507846944    1.83585549448127
H         4.50026627150742    1.30418032863685    0.40578936207108
H         3.33348671104475    2.16993904365150   -0.58800925403883
