38
 energy: -53.124000718596 gnorm: 0.154382835842 xtb: 6.4.1 (79825abcba525fcdf90b791dcacef51065a7a4e7)
C         1.11291701057476    1.21493753711652    0.10386229677778
C         2.50892658885312    0.36447890792787    0.30586790090451
C         3.37064738972567   -0.37850850923415    1.59205311725899
C         2.44402964870657   -1.36065857891064    2.38878585667736
C         0.99419074719265   -1.11075016983486    2.05509557680522
C        -0.09581575788211   -2.02168666770608    2.60370256416450
C         1.09603637536541   -1.52801402853886    0.41058718160976
C         2.20155745254679   -0.87887910481418   -0.52656318003788
C         3.36186842558480   -1.80801264163072   -0.84471177360583
N         4.54992514291311   -1.27881280792297   -1.27861805776269
N         3.33228871958601   -3.10258803249938   -0.72583894371387
C         0.69938439377382    0.45930069132061    2.43345819023429
N        -0.49955134913179    0.92945759663505    2.61274257686109
O         1.80777346141841    1.10132424862425    2.77020358136118
C         2.34708140235561    2.40434031209028    2.38917664468045
O         3.28789640315984    2.45634675606270    1.28844606152679
C         3.44141349370159    1.54454881413243    0.16019424815428
H         1.13938446624573    1.47316445592989   -0.95953644725529
H         0.93065800223266    2.05141874312600    0.79655636974845
H         0.22683607436399    0.59505422021745    0.18831528078739
H         3.82319652760855    0.29035218785878    2.32864653980508
H         4.19210135366645   -0.93916071322959    1.11754103466377
H         2.55311700830710   -1.04323215936927    3.43006755433975
H         2.83721680854642   -2.38393339835578    2.33617203950631
H         0.40162544267834   -2.98178028666264    2.73120571843831
H        -0.93511966640571   -2.09378210311403    1.89033256350587
H        -0.39891165433360   -1.75491548157786    3.62212374192733
H         0.09487507423316   -1.51842122214060   -0.03393891745624
H         1.20625666838226   -2.62596581715257    0.43200116234724
H         1.70736938956602   -0.68977957319400   -1.49508646454991
H         4.83779170161467   -0.32068295298218   -1.22527359524631
H         5.18563605083252   -1.97980835274954   -1.64257048731487
H         2.42158026745623   -3.51679919471906   -0.53829321433530
H        -1.19976818697648    0.19252799723541    2.53268099030416
H         2.85712987458366    2.63133154055061    3.33117566869990
H         1.52533983904841    3.11686467423155    2.26886631409931
H         4.49048331023328    1.24892196066123    0.09126912848071
H         3.10875229374344    2.08974187362927   -0.72990456802278
