38
 energy: -53.124232053771 gnorm: 0.157803546122 xtb: 6.4.1 (79825abcba525fcdf90b791dcacef51065a7a4e7)
C         1.12056633844246    1.23016961546360   -0.12708810502814
C         2.49936611689237    0.45039137521530    0.32433849390378
C         3.27621866377628   -0.31056705895807    1.65336365099522
C         2.51576681528685   -1.48764374901788    2.35637555412689
C         1.06066469306198   -1.22132910466026    2.06041841251254
C         0.05402849195864   -1.99698250816469    2.89942646830966
C         1.08291754653597   -1.57291992579098    0.39765616792412
C         2.21368786010053   -0.83961111154575   -0.44223698960717
C         3.33190899545608   -1.79504493527337   -0.82636838509924
N         4.52502444784083   -1.25914287435237   -1.23757442808017
N         3.34091353327683   -3.09480582043371   -0.86473139911583
C         0.71004461312298    0.33721328036835    2.43875692604596
N        -0.44126728134339    0.92463244875384    2.29713415884248
O         1.72153649371587    1.07374727595656    2.87294573921165
C         2.15271626310106    2.37553026510181    2.36962622705463
O         3.30876928907264    2.39806205761897    1.49642573723501
C         3.46189331386758    1.61422062596587    0.27575346553133
H         1.38574329910451    1.31514381884710   -1.18569999343104
H         1.05773162027557    2.28149209446501    0.19465260053379
H         0.13199534455482    0.80808494190945    0.01816675965046
H         3.69128083644264    0.41604189816229    2.35657631633586
H         4.00166468508311   -0.87569642211098    1.04620953652987
H         2.72050001031780   -1.47515194676115    3.43101755806329
H         2.81555383671565   -2.41744291683274    1.85631857255519
H         0.32024648572504   -3.04467003784877    2.76918290413545
H        -0.97851999198909   -1.82308255764182    2.54995829148442
H         0.09216396931325   -1.68827010104582    3.94988257440274
H         0.05340150663964   -1.42140319839507    0.05537142632005
H         1.19157337447954   -2.66908276251004    0.46640324021643
H         1.63377204490475   -0.58942247060409   -1.34729010420661
H         4.95860686624601   -0.47997854454287   -0.78080878679299
H         5.16783745539323   -2.01563371131531   -1.44372375058977
H         2.48094949395768   -3.60707274791809   -0.67985679713611
H        -1.23919879961250    0.39700704991288    1.94401173931767
H         2.53377945105058    2.99822113285959    3.18576565010900
H         1.31849744686539    2.76305865287428    1.77689908041972
H         4.51761046515537    1.34755052694524    0.19183834628650
H         3.27208777054513    2.23895040245290   -0.60394046513641
