38
 energy: -53.127204653919 gnorm: 0.150175460411 xtb: 6.4.1 (79825abcba525fcdf90b791dcacef51065a7a4e7)
C         1.06310677304250    1.08119877601299   -0.17031660679368
C         2.48380784926319    0.38977338098375    0.29494491474211
C         3.21215141382858   -0.32821782152782    1.67439037346384
C         2.34748257276085   -1.27158806183530    2.58016223719462
C         0.95249967350097   -1.10520612928646    2.03045680057657
C        -0.09581865734841   -2.04726415017996    2.60703681635940
C         1.15186470578619   -1.66367553651410    0.43758045722582
C         2.28927333085673   -0.95084216395325   -0.41093237244060
C         3.48182813431985   -1.80974349460054   -0.79943047645278
N         4.62704863548404   -1.13769694426907   -1.14094086790757
N         3.58340209622786   -3.10453316980704   -0.86372348058369
C         0.63028456830973    0.46039401350734    2.40489291835174
N        -0.56289254888415    0.95967171796804    2.53788722761159
O         1.65350512728930    1.20388178668014    2.79778433965588
C         2.24266257404425    2.39809313210327    2.19725272837044
O         3.40133086686752    2.40179210484559    1.32724154171085
C         3.45842456279453    1.53596542279901    0.15464629296017
H         1.17597503102603    0.92179917606761   -1.24737328502810
H         0.91432262098029    2.09895305635346    0.22310904154195
H         0.19937200914542    0.49435168091238    0.12311108191238
H         3.64830142066021    0.38108193530155    2.38249507455748
H         4.06886422164135   -0.88700615767133    1.26441720597446
H         2.37721935456527   -0.87810250280228    3.60056019993983
H         2.68147069049674   -2.31700507235313    2.58347008364474
H         0.43061461857643   -2.94312969434048    2.93227134284149
H        -0.87607111141982   -2.31463671843771    1.87338595464548
H        -0.52666950691285   -1.67843542714937    3.54434605587003
H         0.13883131069897   -1.61829034889555    0.02318576910169
H         1.43275955460245   -2.72037944836774    0.58784733409316
H         1.82816527428111   -0.83588873224389   -1.40701616645839
H         4.77475206627969   -0.20688056628084   -0.80110240064777
H         5.40899861704782   -1.75176849103901   -1.33957331664904
H         2.80477423098132   -3.51175377159481   -0.34987115833969
H        -1.23027222634531    0.20161786667684    2.39739721327869
H         2.65781514467799    2.92739658391345    3.06126825388369
H         1.42925117526719    3.00910362202651    1.79419836125792
H         4.48661531731695    1.16785307031557    0.15141098304989
H         3.21093085775177    2.15429825680861   -0.71517335644722
