38
 energy: -53.126274508727 gnorm: 0.163164361430 xtb: 6.4.1 (79825abcba525fcdf90b791dcacef51065a7a4e7)
C         1.17809762993101    1.06981617974368   -0.04537190429354
C         2.59657258345052    0.34500661906078    0.37356583073543
C         3.35198577882041   -0.43297738837109    1.70509024361584
C         2.36018890563476   -1.32732964556476    2.52636686185916
C         0.99655869522220   -1.08663718517706    1.92768824938604
C         0.05316163387478   -1.97236509936657    2.73041933790799
C         1.17002792404185   -1.68858781610985    0.34767135536212
C         2.32917984873258   -0.92820874976567   -0.42692164652176
C         3.52420086735511   -1.82961542201763   -0.69191224635534
N         4.32573986565705   -1.33052699884022   -1.68602083908920
N         3.72538931752721   -3.04866946570755   -0.28649690008709
C         0.60401474160479    0.45822711768742    2.32066700202243
N        -0.62811179313516    0.86161986599442    2.41953978539926
O         1.59442001066364    1.20699605907755    2.78170985790941
C         2.04595590457615    2.48624345560450    2.23992863743687
O         3.26445380818549    2.38228587726754    1.46281793308705
C         3.43182678717696    1.59761335020862    0.24455258613373
H         1.36850419299212    1.20347691775414   -1.11498805647296
H         1.10965767826726    2.07864865354650    0.39088175525057
H         0.29867984790438    0.44743239108195    0.08028575896761
H         3.77476687567109    0.25680924850846    2.44007036209570
H         4.12449377748493   -0.98122222652115    1.14211757455395
H         2.48261535574658   -0.96699113858288    3.55208372474843
H         2.51253010995896   -2.40626967106880    2.39546112299818
H         0.22549810053155   -3.03104333143090    2.54337628234106
H        -0.93756130051716   -1.65005556528552    2.36557661845543
H         0.10827173343259   -1.70317400299228    3.79094502050171
H         0.18498513852469   -1.52811144634101   -0.10394515913555
H         1.44522734581491   -2.75092784565201    0.46516237528382
H         1.93419020746149   -0.63206434352283   -1.41398776312253
H         4.45219983975171   -0.34000631855272   -1.60476643752753
H         5.07329713861406   -1.92205457755552   -2.03132901182098
H         3.06036039140061   -3.50226517861273    0.33649718123846
H        -1.37573967466776    0.21995182435170    2.15668358731950
H         2.41421630824076    3.08467863235909    3.07974780757573
H         1.29883251825734    3.12508286152582    1.75918379990125
H         4.49795217063862    1.37004811872066    0.17909934640906
H         3.27938157431486    2.20285793703536   -0.65578861760474
