38
 energy: -53.126527940272 gnorm: 0.139426611894 xtb: 6.4.1 (79825abcba525fcdf90b791dcacef51065a7a4e7)
C         1.11359411092376    1.11040242778395   -0.13214143292718
C         2.54666174135930    0.40211344488888    0.26481298022460
C         3.27753663314291   -0.31383329522300    1.64398216382486
C         2.38081612266400   -1.28299062120350    2.48935111900051
C         0.95957676267907   -1.10195366712148    2.01697354882218
C         0.04858067396866   -2.08693049860876    2.73724841406672
C         1.10553004758061   -1.56504216642054    0.38812850010342
C         2.26799935168212   -0.90728399599064   -0.47083781612113
C         3.45435685946632   -1.84206830549152   -0.64277799091373
N         4.65251422832775   -1.25599574158948   -0.96017962250071
N         3.44554521947088   -3.13495723572343   -0.78167273871690
C         0.54978970858420    0.45283276239987    2.34839846057070
N        -0.63966921082046    0.97131007032194    2.43210073699306
O         1.62442905068677    1.16099296974602    2.66109228494565
C         2.23731210083246    2.43282866543123    2.28600061410348
O         3.33201213479308    2.38796634454988    1.33781046367428
C         3.41438782423044    1.62757632366495    0.09566859923705
H         1.32694840697258    1.38051014239488   -1.17123735300864
H         0.73988762046368    1.91420218786623    0.52130607558716
H         0.40004887428541    0.29401899987850   -0.10216870106239
H         3.70469594018488    0.43939724739179    2.31100833374147
H         4.07941453273241   -0.87789334527106    1.14088443150433
H         2.45311497740072   -0.98005860434802    3.53812765593155
H         2.68013701340956   -2.33753259486929    2.43639876124314
H         0.36361050379715   -3.11275386465776    2.55305508528508
H        -1.02754197540744   -2.06981834100529    2.49190626093951
H         0.17648865469626   -1.92076064254019    3.81253573216487
H         0.14164113360649   -1.53266889908264   -0.13138045732137
H         1.22117555608429   -2.66145773510345    0.43916008053855
H         1.93712104041168   -0.77999620844253   -1.51598623191355
H         4.88419006456758   -0.28264404565726   -1.01154498155242
H         5.30943033093776   -1.99729889097346   -1.17677917863278
H         2.63661128124114   -3.56020441878463   -0.33342626864847
H        -1.36167635507466    0.29698011220739    2.17958638165392
H         2.84762046918821    2.60848527176752    3.17802364017519
H         1.53266364296324    3.25559179277392    2.13122296841201
H         4.48673148607478    1.42155584760619    0.07755689248432
H         3.14358164969893    2.19147310452551   -0.80369744489830
