38
 energy: -53.122589759290 gnorm: 0.140508656421 xtb: 6.4.1 (79825abcba525fcdf90b791dcacef51065a7a4e7)
C         1.21667757124781    1.19037583877004   -0.08029023102618
C         2.54040621628201    0.33625553016597    0.40049025231908
C         3.32381771724439   -0.23112071265959    1.81936871297741
C         2.48509802909386   -1.41054866073393    2.42229596615271
C         1.04129746453816   -1.13447500496292    2.08309167849364
C        -0.02739976188498   -2.02631013661135    2.70067202637197
C         1.10354393030094   -1.64278973308468    0.46240321955277
C         2.27936178076627   -0.96249858031856   -0.36006876830471
C         3.42803467296751   -1.89462354971543   -0.71010143872778
N         4.53809385572092   -1.23251627241328   -1.16747271152695
N         3.42253783561356   -3.19495847961170   -0.70462252608317
C         0.63095344333889    0.42213261499781    2.40514647230010
N        -0.53608270819234    0.96470674081862    2.22000521963015
O         1.61345161224421    1.19536797278601    2.84209324385008
C         2.13599729637473    2.42409383874705    2.24958652548361
O         3.27163992222143    2.38981539379974    1.35037232385637
C         3.47949123017316    1.50460572246452    0.20971600929891
H         1.26957647343669    1.22365310677467   -1.17312731300840
H         1.22076864822052    2.26566494817531    0.15736673030433
H         0.24165286378762    0.78446962481610    0.16688182010785
H         3.62011618973004    0.49093650000997    2.58460450923718
H         4.27120561045923   -0.62530093706772    1.41767559101338
H         2.64663744058471   -1.51055298205561    3.49971478366496
H         2.71977831454420   -2.38317425896701    1.97131886927601
H         0.39252575560638   -3.03081282816493    2.68965079914067
H        -0.85143070751167   -1.98107898834250    1.96756035772115
H        -0.21319400712372   -1.80408591510610    3.75722897499112
H         0.20448332229771   -1.53443677569781   -0.15401311209750
H         1.24478994369053   -2.72592601271282    0.62042402956969
H         1.96482796171895   -0.62026098929383   -1.36104817168539
H         4.48965176747533   -0.25527563948347   -1.38283224354684
H         5.15754304413711   -1.86210392234757   -1.66535481124126
H         2.54040162215412   -3.54438782137254   -0.33601838201726
H        -1.33078063156430    0.32590732154561    2.20699663336661
H         2.50064030018473    3.05924278074623    3.06362456211359
H         1.37546705479967    3.03286046314219    1.75116732992128
H         4.55492474175085    1.32953617392218    0.13564301981185
H         3.21603070248911    2.11297518003426   -0.66243650337132
