38
 energy: -53.124099036280 gnorm: 0.162864217210 xtb: 6.4.1 (79825abcba525fcdf90b791dcacef51065a7a4e7)
C         1.08395260801562    1.06503603996194   -0.03048566200730
C         2.51268148776735    0.32765700492102    0.32719413820826
C         3.29124463378816   -0.26472729160795    1.73850052732550
C         2.46662723868836   -1.31359683534149    2.56184802140166
C         1.06434111803947   -1.14110026210356    2.03300507614005
C         0.01204491978019   -1.94000622900035    2.79017819299810
C         1.12661251950917   -1.71718840824749    0.43515204824719
C         2.24722928682552   -0.98057209973556   -0.41538796250910
C         3.44364881885799   -1.87549175501429   -0.69561705812683
N         4.57851821310382   -1.18125469260429   -1.02714725009531
N         3.50240194109439   -3.16897577218275   -0.81552668879918
C         0.66175167062066    0.43016713328367    2.28632175975612
N        -0.54856142523260    0.90416881449929    2.31951795214417
O         1.60416581930493    1.22061315292815    2.77741109939101
C         2.15020501763801    2.43109499480752    2.16875653663899
O         3.34845821612430    2.37404714535819    1.35611874067832
C         3.37856927491775    1.55335830333162    0.15052415838093
H         1.20316105414295    1.32116562186265   -1.08802315167672
H         0.79376069547204    1.98106310446981    0.50749881990565
H         0.22060761129651    0.40843617915627   -0.02423279127485
H         3.80013722401868    0.52302559049827    2.29994416122154
H         4.20846711952902   -0.65390389814110    1.26783747051343
H         2.46194181804196   -1.25265534848667    3.65418099971523
H         2.94689403360643   -2.27302872322340    2.33100178305705
H         0.27696141000756   -2.99604658823266    2.79926534188098
H        -0.93159182513064   -1.84689565277790    2.22501831512855
H        -0.16877967081657   -1.60387746945214    3.81708403958000
H         0.08250165525850   -1.55592312703473    0.14559125345924
H         1.43772890072653   -2.76906064799332    0.55712173252787
H         1.81085011259926   -0.81853156678680   -1.41605470282652
H         4.52406637121220   -0.19311452783271   -1.18315887920636
H         5.36061276451513   -1.64397211331246   -1.47681955799231
H         2.81359114729611   -3.89841975735375   -0.64352284442725
H        -1.24271164393710    0.24383266778608    1.97038994440794
H         2.48589859738671    3.00444027060226    3.03917117727006
H         1.37018740891587    3.03399797459487    1.69388257963491
H         4.45622814219009    1.42142826062831    0.03245969288179
H         3.27311416004533    2.22088317056630   -0.71171977747739
