38
 energy: -53.123612898079 gnorm: 0.150475711892 xtb: 6.4.1 (79825abcba525fcdf90b791dcacef51065a7a4e7)
C         1.05623773965332    0.96656347963492   -0.09970391303817
C         2.47000420396098    0.25110653300485    0.35009008720732
C         3.30840307879149   -0.30233121743454    1.74280666247422
C         2.42552508315249   -1.24355043190555    2.63311847137708
C         1.03146985693939   -1.09568095899768    2.07582057487358
C        -0.07985256219981   -1.82357585320938    2.82014621309043
C         1.29007702796893   -1.78910588848214    0.54573111920085
C         2.30868626896338   -1.05453796384356   -0.42619943445239
C         3.51790021697919   -1.85492165885336   -0.88228801154863
N         4.61485795575530   -1.10017182794210   -1.20915545277670
N         3.60548704475944   -3.12483170705440   -1.14797235984150
C         0.64452196874640    0.48768264807555    2.27167726134328
N        -0.52175226179710    1.05644329965830    2.35506255900335
O         1.62165794554093    1.19347239274062    2.82047978255083
C         2.09219275441965    2.46218661632968    2.27016468996057
O         3.27529566456872    2.32595370737812    1.44484446080461
C         3.38954107725904    1.44841966862702    0.28519919218237
H         1.03375864083841    1.05341523114244   -1.19064388302469
H         0.98627230550816    1.95139548688399    0.38810239920755
H         0.15494818722589    0.45325985296171    0.21766588475356
H         3.66323889545543    0.54947458651327    2.32869372721374
H         4.15999531321896   -0.88601701249480    1.35760438690397
H         2.50390064743852   -0.93117244704906    3.67868263785617
H         2.76168186075722   -2.28724564526976    2.58670021049372
H        -0.11205168636369   -2.90228860434071    2.67583205880302
H        -1.09562653108226   -1.49778603139947    2.53626278059638
H         0.17429584194894   -1.60758665794282    3.86368488388996
H         0.35410527250457   -1.96104315841927    0.00313192887502
H         1.72455978366016   -2.79234331659639    0.69687544496123
H         1.85981372257444   -0.89450113434323   -1.42164882971075
H         4.48347303267236   -0.32624049468049   -1.83164554400776
H         5.30946570228038   -1.75615084792333   -1.54856095951106
H         2.77839033361676   -3.61672951354153   -0.81618665190006
H        -1.34160890869237    0.49111438002706    2.13593472943769
H         2.52830801238912    2.95606858732027    3.14476214869943
H         1.25446597614014    2.95951653203144    1.77186602848140
H         4.47661249853097    1.34910802402575    0.25193790344879
H         3.11876723312417    2.04525653286138   -0.59266305891745
