38
 energy: -53.124973225595 gnorm: 0.155668141652 xtb: 6.4.1 (79825abcba525fcdf90b791dcacef51065a7a4e7)
C         1.22620828202801    1.21639521962124   -0.08761008749091
C         2.55490106245662    0.33551257274532    0.32657605191359
C         3.21283942009053   -0.36752914432877    1.74844627172286
C         2.39124405841780   -1.35090723409339    2.65175732603203
C         0.98029580449010   -1.18365816487302    2.14471781377245
C        -0.14208724226485   -2.01421412417108    2.75243669600458
C         1.08890388354532   -1.64861566403830    0.51348871759546
C         2.22449494030295   -0.98128542403655   -0.37358912285300
C         3.45818254699477   -1.78002260835532   -0.76199998923523
N         4.23278550904877   -1.11349244732022   -1.67607531446396
N         3.91013349225220   -2.96087262317207   -0.45824890112740
C         0.67423483268374    0.42087111387692    2.30885592278646
N        -0.51245873038603    0.92840470255546    2.15135855844237
O         1.65840353064326    1.10755625191788    2.86920721932527
C         2.18019446435127    2.35615667891109    2.31910116493104
O         3.28059556154320    2.31642521066980    1.37730277578611
C         3.50210685148071    1.50441224357972    0.18589065574004
H         1.45295655455661    1.19703248551774   -1.15831493507492
H         1.37927391624340    2.23924047964318    0.29067912441168
H         0.28233492661489    0.71451018284736    0.09607867212841
H         3.74759206486415    0.35440346501907    2.37102007950622
H         4.03170640391207   -0.93921761331479    1.28271201938532
H         2.66600135313801   -1.02623767377250    3.65973810979416
H         2.65739161725079   -2.40475599368508    2.50002071012553
H         0.13923157958291   -3.01411203427100    3.07885428971389
H        -0.91834220532908   -2.24503386199953    2.00231933718491
H        -0.60240765219972   -1.45118803009177    3.57177937640140
H         0.09136001377691   -1.55162122036392    0.07131484227997
H         1.17199073417549   -2.74760528051053    0.57200025383456
H         1.73158436871204   -0.73243813709950   -1.32916854699249
H         4.22957835427562   -0.11967024071817   -1.80269580537612
H         5.07689680689097   -1.64375244457770   -1.86123724875843
H         3.33879714928456   -3.51830658075946    0.17339683311515
H        -1.21317738153145    0.26725479385679    1.81721354692416
H         2.56819632631436    2.93595067706409    3.16309767195206
H         1.31655952725641    2.93192873443494    1.97262463277542
H         4.54013593999264    1.17534743012745    0.10279219750894
H         3.46934826030838    2.06567343456091   -0.75436866513677
