38
 energy: -53.121423469051 gnorm: 0.173580597574 xtb: 6.4.1 (79825abcba525fcdf90b791dcacef51065a7a4e7)
C         1.13521201969227    1.06765854289052   -0.10485086984817
C         2.56479200233442    0.35982708371513    0.30527668313001
C         3.31597831343429   -0.17653200810195    1.75334558169081
C         2.35823419443297   -1.09206108328833    2.59153112368212
C         0.97692514222315   -1.11170594145654    1.98536636689842
C         0.08091426706444   -2.06079433657977    2.76976735169744
C         1.23175484591635   -1.66751108033154    0.39948110806109
C         2.38238100776136   -0.96238793078992   -0.43757601709253
C         3.48719360111076   -1.95102648373611   -0.77345126768363
N         4.75121588514916   -1.46001935892834   -0.97585081538422
N         3.28703067611400   -3.20357119877085   -1.05980368677664
C         0.60332232393452    0.45096320640944    2.32243451413593
N        -0.61622522680787    0.88851126183249    2.43148890350711
O         1.56580132365374    1.19875889495713    2.84065635797975
C         2.09163311875554    2.41242892572657    2.22066324177318
O         3.24693170101375    2.43887174461424    1.34657437943265
C         3.41051266189021    1.60380288441923    0.16175522832487
H         1.32335469733314    1.31324286882440   -1.15484574284877
H         0.85792239510390    2.00523984689810    0.40189956259751
H         0.23920530252795    0.46114075507158   -0.02846240293689
H         3.62401784385089    0.63985037648196    2.41165910094670
H         4.23345096406502   -0.56707010100639    1.28430062542697
H         2.44708966640885   -0.86730239893524    3.65854349699547
H         2.69574532576723   -2.13511023357345    2.54063464569313
H         0.37253738212365   -3.10093401060011    2.63356902819722
H        -0.96349655777537   -1.86568214699143    2.47032981509536
H         0.20789813887524   -1.81956269206393    3.83085080352677
H         0.27746569979125   -1.65346871534451   -0.13824975667707
H         1.56688750516361   -2.68846967217058    0.65134392863408
H         1.89366049349014   -0.76457453638375   -1.40713260523210
H         4.86269268789030   -0.46478996586268   -0.94726766848403
H         5.51029565173136   -1.95502902796210   -1.43054611582373
H         2.36147471151151   -3.62238753931371   -0.99598204961160
H        -1.34060119439389    0.22307701358336    2.16268518319802
H         2.49294584295756    2.78563711931910    3.16866133166350
H         1.23533782728871    3.04104508401420    1.95793742810982
H         4.49056568343190    1.60095285316443   -0.00001848859352
H         3.14071467573304    2.17238323895415   -0.73496115871774
