38
 energy: -53.127189492921 gnorm: 0.156952066513 xtb: 6.4.1 (79825abcba525fcdf90b791dcacef51065a7a4e7)
C         1.14426494119303    1.29508438877089   -0.00780838713940
C         2.52551753769409    0.44723520313641    0.28582730844582
C         3.32095893162527   -0.29910776212853    1.61214199564136
C         2.47498274718368   -1.38263724120310    2.36600566992885
C         1.02917314109609   -1.16451038256495    1.99466816904008
C         0.02728334139167   -2.10877590248919    2.64541281999874
C         1.08367586734576   -1.49802378221618    0.32892874781237
C         2.24725749701302   -0.82328721413761   -0.51523485916770
C         3.35591250886381   -1.83105056942283   -0.77238529005382
N         4.28971757581753   -1.32210867165924   -1.63771307120443
N         3.49718895035879   -3.05692024030451   -0.36224423473523
C         0.61012225834731    0.37224334713479    2.39205101682468
N        -0.56233882135712    0.87491747763802    2.64362820147721
O         1.63800421607505    1.08902402841297    2.82077259807745
C         2.26736211189907    2.32577153265168    2.36442875348674
O         3.46063278346130    2.22505647449825    1.54870395469496
C         3.56120103678979    1.54726120444177    0.26092495434985
H         1.13577036538036    1.43231048782295   -1.09376206899466
H         1.25630508877470    2.26894446236647    0.49397623298849
H         0.16247174325818    0.84903898791792    0.10903626056755
H         3.62265111068124    0.44834708538614    2.35040910074762
H         4.20488948285685   -0.79499390113370    1.17965736775474
H         2.56196354485260   -1.14601111791966    3.43060398819519
H         2.92766112242629   -2.35783628221990    2.14572212040025
H         0.20302149759582   -3.10713748675661    2.24807818682223
H        -0.98005586692461   -1.85439652517775    2.27247258166813
H         0.04833543687074   -2.09938203177352    3.74071380708453
H         0.08894940375228   -1.33509773760703   -0.10001624403523
H         1.18383139380523   -2.59324780350138    0.42144051524673
H         1.89749365340788   -0.67689502291593   -1.55169635251890
H         4.19364111153041   -0.37191690482594   -1.94041843982979
H         5.02455153412525   -1.94306732767991   -1.95773477428462
H         2.87197212960693   -3.42751415610297    0.35042556947469
H        -1.43226980402033    0.38705218351894    2.43152858829685
H         2.68902211311106    2.90274603229684    3.19409127015144
H         1.47018907149357    2.96620961370864    1.97484056901746
H         4.60322965215301    1.22035801522560    0.25890908894060
H         3.31678714814719    2.29334498428730   -0.50314028783609
