38
 energy: -53.131609551552 gnorm: 0.153738393474 xtb: 6.4.1 (79825abcba525fcdf90b791dcacef51065a7a4e7)
C         1.15391657374867    1.15139648187810   -0.08127070181201
C         2.55326112526313    0.40173858301660    0.35779280279284
C         3.34197680364581   -0.27362035199081    1.72552207280786
C         2.43057046996540   -1.23477669115726    2.56429454006107
C         1.00086224560090   -1.15201331391120    2.09003628168401
C         0.07484255172482   -2.19873845248222    2.69480329009818
C         1.06981990559059   -1.58546156271539    0.44800795822965
C         2.24840105944948   -0.90569235405790   -0.37093289664132
C         3.39334607403528   -1.84197638973446   -0.72207725885433
N         4.59679534003544   -1.26743933148054   -1.04054694848822
N         3.31692622932033   -3.13984497212602   -0.74714353084658
C         0.62268187888239    0.42879099787758    2.32061407330203
N        -0.60804525034444    0.84822281873186    2.31561192880297
O         1.58388122902643    1.24258562022961    2.73043373480455
C         2.18060741363910    2.45642752127919    2.17871719484305
O         3.39750579376621    2.39546775313031    1.39456950728173
C         3.51562558838019    1.55689280176107    0.20682588385360
H         1.31876869021999    1.37856067876548   -1.13929658412845
H         0.77279560948302    2.09154058500864    0.34723846552849
H         0.32252974432636    0.45537965026735   -0.05154573104238
H         3.82771374164720    0.50981291247556    2.31292072393115
H         4.14728978053035   -0.89825372521919    1.30649535378421
H         2.49223280821229   -0.88586167796492    3.59937097628104
H         2.82594655242891   -2.24088033742828    2.37485078428403
H         0.64718766175141   -3.12270451289907    2.75955167850597
H        -0.79612571661863   -2.32368257434731    2.02822335536277
H        -0.31491875811322   -1.82775913659649    3.64909682763484
H         0.14066273870441   -1.26526827464637   -0.03589560758915
H         1.31727025765740   -2.66100431821628    0.43899031331543
H         1.83779463550696   -0.69404279165126   -1.37324257014280
H         4.72652485229049   -0.41405654720242   -1.54910735883137
H         5.19954672191501   -1.98717636004117   -1.42350109047830
H         2.48961300450349   -3.48824121107842   -0.26724034622252
H        -1.35837817488403    0.16478810937134    2.21714260323196
H         2.53310207637759    2.92731593392149    3.10232330150881
H         1.40236606738786    3.09650115078705    1.75201953117622
H         4.55494091163664    1.23328132774679    0.11854978540481
H         3.33408068175379    2.14109460678749   -0.70197802427361
