38
 energy: -53.123840714798 gnorm: 0.155868224878 xtb: 6.4.1 (79825abcba525fcdf90b791dcacef51065a7a4e7)
C         1.18122852513258    1.31742261859562   -0.14662062976496
C         2.46520583821979    0.37093476926681    0.26385702175613
C         3.24318473963946   -0.36701771125865    1.60514015504456
C         2.43025491288705   -1.40413143247088    2.45458850424462
C         0.98547666923034   -1.13772110195430    2.11183836694988
C         0.01747253434763   -2.10705276567218    2.77685961499986
C         1.02618167142826   -1.41932441683499    0.43614978203038
C         2.20961766553921   -0.92637038611978   -0.50101583506699
C         3.39300010837902   -1.83820986956078   -0.78205671087406
N         4.42112941432487   -1.11039056822192   -1.32338387461069
N         3.46235570175575   -3.13101315858885   -0.66048119855090
C         0.66722859897971    0.44112554391966    2.42978532132833
N        -0.53781330011399    0.92941943782994    2.42081544361283
O         1.74090108680913    1.05206381095807    2.90738337248310
C         2.26341173371821    2.30766229507772    2.37414745110466
O         3.41457889241246    2.24689564026062    1.49632801418269
C         3.47953840109955    1.49087604081892    0.25049103319066
H         1.36416686566542    1.56776389860318   -1.19641173515421
H         1.10253006961893    2.30974810755715    0.32437927500153
H         0.22615790501143    0.80929797320855   -0.06802983301583
H         3.76268744782199    0.33988516979751    2.25717580274961
H         3.95366664466360   -0.95259038146814    0.99966567057056
H         2.53526280741085   -1.29596495070460    3.53819383532520
H         2.81658321201310   -2.41271369398639    2.25973472868372
H         0.32058485094340   -3.14852956777232    2.68234214676891
H        -0.99491511091019   -2.12104609550103    2.33708580324520
H        -0.02875124065959   -1.84409689927047    3.83937232941112
H         0.07787928902609   -0.99827964223022    0.08477629020648
H         1.06552963909504   -2.51101596303375    0.27877595749312
H         1.84360521614958   -0.73863741955429   -1.52512963129681
H         4.20774493233175   -0.16993414620575   -1.59492465933256
H         5.24165609303617   -1.51666544667677   -1.75888493322366
H         2.76087829445910   -3.55654281392144   -0.05799623577857
H        -1.20382422277863    0.23213508312075    2.08914889550738
H         2.77603347354164    2.72874476864404    3.24532202337605
H         1.50520587189479    2.93782945222401    1.89934435838816
H         4.50745735812417    1.14870008860339    0.11268089758268
H         3.41733968084572    2.09691871832989   -0.66001346522857
