38
 energy: -53.128211124597 gnorm: 0.157552461334 xtb: 6.4.1 (79825abcba525fcdf90b791dcacef51065a7a4e7)
C         1.15890858621763    1.02763127612377   -0.06281605455196
C         2.53152385030906    0.22645109166316    0.36958023249630
C         3.28816521498589   -0.41695801426940    1.77043141667495
C         2.36308029897868   -1.40050112680328    2.56722694874546
C         0.98175797924173   -1.07895420891358    2.05303582156302
C        -0.13471574945016   -1.87507659538757    2.71527800699196
C         1.14250175781327   -1.73603716908918    0.49377543243192
C         2.28158387007199   -1.07359923262247   -0.39249299237249
C         3.54010893124533   -1.83080692115700   -0.78438634354881
N         4.35417780929375   -1.11759072436780   -1.62606349289963
N         4.02178524515227   -2.99449796561649   -0.46074730414886
C         0.62656727074942    0.50319117879870    2.30952037456713
N        -0.52707888660540    1.08721402211163    2.17293628781289
O         1.60543205347854    1.19872317019897    2.86824844401405
C         2.04324280199538    2.43260459624456    2.22037202497727
O         3.26778671787004    2.33157237412471    1.45243318557908
C         3.46065783908144    1.41751009688091    0.33208233561932
H         1.38835519879588    1.29889778208594   -1.09817458968951
H         1.03974733169627    2.02026920669107    0.39893579710552
H         0.23023706930816    0.46720249171990   -0.05883506445464
H         3.74209314660954    0.30923435308470    2.44965104962029
H         4.11312785430106   -0.90406403968082    1.22596506913162
H         2.53420380700564   -1.09587352715535    3.60397471404012
H         2.55410070370719   -2.47080883027297    2.41753275082226
H        -0.13817121036661   -2.94521059804498    2.51456469398793
H        -1.09906046807119   -1.51222947806923    2.31916337051734
H        -0.11342673557785   -1.69968015942137    3.79648037592920
H         0.13503857163570   -1.62424239446950    0.07839694444431
H         1.49536774603360   -2.77035523902449    0.64797312533412
H         1.91608651543533   -0.94114966023025   -1.42539503758340
H         4.10827162920692   -0.17811661119297   -1.87232383622549
H         5.17052965416618   -1.57966566703090   -2.01082432265080
H         3.41362532080793   -3.48618896113761    0.19080134724452
H        -1.19182424053854    0.44156947211997    1.74745368259767
H         2.35458154635611    3.03874954852720    3.07751443715421
H         1.21500160329350    3.04135012481547    1.84504530506533
H         4.50514922146035    1.10564816062036    0.39896490081184
H         3.48682785149876    2.05864119051314   -0.55585960320311
