38
 energy: -53.124334008099 gnorm: 0.151877725266 xtb: 6.4.1 (79825abcba525fcdf90b791dcacef51065a7a4e7)
C         1.14037864825168    1.13971317705595   -0.09289577827257
C         2.54825415757249    0.39436867233425    0.32576521082153
C         3.24219939932479   -0.30312703074832    1.73317603273333
C         2.37950944529113   -1.32516554119709    2.55123813553750
C         0.99807989623681   -1.09885525606257    1.98885716733933
C         0.04621274490003   -2.12897136096430    2.58189922807433
C         1.11281877686943   -1.50061386369042    0.34133947059750
C         2.36068729079367   -0.91137921551159   -0.44442799106654
C         3.50402279060499   -1.85918060965758   -0.76890549800903
N         4.51088936053854   -1.38344272345135   -1.56871739377958
N         3.68477621515175   -3.06792492301346   -0.32483733696004
C         0.62023496140503    0.44870816281726    2.38560580680020
N        -0.57817762874508    0.89826215895571    2.61439790645985
O         1.68015109228659    1.15685072633335    2.74509151675983
C         2.08826795241549    2.49268998826409    2.31747069387285
O         3.20944227373408    2.48055702002466    1.39972001675594
C         3.49575700798285    1.57108206005181    0.29573889503992
H         1.06606925093857    0.91748461096983   -1.16214370950204
H         1.42717758422922    2.18657020454390    0.09306384709210
H         0.17220373780350    0.93316079538872    0.35038800394882
H         3.64582455323879    0.48387291518888    2.37540890119057
H         4.10044033668959   -0.85587136709842    1.31823576036123
H         2.51228462203108   -1.21554294818420    3.63164583304453
H         2.67693282618559   -2.35150625918904    2.30099865380000
H         0.36719587200814   -3.16938035622865    2.58002585988038
H        -0.88327811074708   -2.12153774838720    1.98648587370476
H        -0.24047122332107   -1.78100401053369    3.58037142182426
H         0.14916731643753   -1.24890416871399   -0.11477183626588
H         1.10972355633512   -2.58902563737361    0.52424775411223
H         2.10765291706494   -0.58539268028737   -1.46801200215276
H         4.39909399274562   -0.84400828991293   -2.40551957900343
H         5.16134883999156   -2.15642626596953   -1.65464411258770
H         2.87779340751246   -3.33461513962321    0.23533161417637
H        -1.34509852359316    0.34005021127140    2.24021816803630
H         2.40360431128034    2.97852143325638    3.24675397451978
H         1.19292401036546    2.92283847659086    1.85838872205476
H         4.50503026562059    1.17503996750814    0.42693169838702
H         3.43922076341752    2.13752829451495   -0.64027240856967
