38
 energy: -53.132945687574 gnorm: 0.143195037506 xtb: 6.4.1 (79825abcba525fcdf90b791dcacef51065a7a4e7)
C         1.07925851931014    1.11330403432952   -0.07795326670965
C         2.46756982926471    0.35572241710039    0.38203663432828
C         3.23172173451968   -0.50328779810616    1.65759094344779
C         2.32901590909958   -1.36010648135959    2.61100911577135
C         0.94510778340307   -1.15960366954905    2.04494092946736
C        -0.13127952829267   -2.05101180344989    2.64964830729077
C         1.06193732399871   -1.68083626768401    0.43138679415835
C         2.17193758877090   -0.91709784722050   -0.40909333500703
C         3.42716131948262   -1.66827122530610   -0.82259203811313
N         4.18192072508310   -1.04454854438490   -1.78233897069743
N         3.85450254823743   -2.87393767555123   -0.58875653022759
C         0.69136863344190    0.42620647656661    2.38545726113812
N        -0.40254976749931    1.12859171228749    2.41065327929747
O         1.74569686706684    1.08780816489130    2.83799811526894
C         2.37269813959723    2.33546171323606    2.40891131331268
O         3.51164888972697    2.17594677214727    1.52755352867719
C         3.45684175399589    1.48928654713985    0.24171175256529
H         1.12948072084196    1.00090646826648   -1.16563110437491
H         1.07819353057242    2.17222472433179    0.22442080417601
H         0.16192630985375    0.66916840351080    0.29322353944440
H         3.74458247632792    0.24252363056900    2.27035877189285
H         3.96582345080170   -1.17960939258827    1.19072586131166
H         2.46192489026791   -1.02781261814988    3.64485781945414
H         2.66361692264325   -2.40464185169232    2.57301247032595
H         0.17279047273609   -3.09647772840058    2.64445330922448
H        -1.07722573928877   -1.81192238530814    2.13336584448047
H        -0.24177305240119   -1.82016635499344    3.71487938449378
H         0.09542791927335   -1.58214710509359   -0.07471541578015
H         1.29498137946975   -2.75920990162681    0.46148611317305
H         1.67766361824263   -0.78453562765048   -1.38691660625600
H         4.23254062852970   -0.04934454245124   -1.88593547940722
H         5.03526804036786   -1.55082839551401   -1.99081813641921
H         3.33988071247687   -3.35726593727664    0.14451854267429
H        -1.17660923178968    0.55550290788902    2.07572062533523
H         2.79111358615354    2.74660683931498    3.33353276308019
H         1.58577515574853    3.03068555143923    2.10094901543747
H         4.46498284247550    1.07173965132467    0.19699556056768
H         3.21655848730570    2.19845120418166   -0.55799087396339
