38
 energy: -53.124022655756 gnorm: 0.161173581002 xtb: 6.4.1 (79825abcba525fcdf90b791dcacef51065a7a4e7)
C         1.11387052999931    1.09249712707261   -0.16404216167650
C         2.45174024076388    0.29021270056184    0.36451552751602
C         3.14144148278520   -0.34280768997736    1.80412062857916
C         2.29673513503973   -1.32184509581776    2.69067532201785
C         0.97633172424749   -1.12275545755893    1.98872485435731
C        -0.09971783321402   -1.97843855561776    2.64356295773834
C         1.17396176836666   -1.76509169343512    0.42755987715308
C         2.25157504314218   -0.99012279731053   -0.44420652565678
C         3.50719418960694   -1.76223060997188   -0.81582367773727
N         4.36537717921181   -1.15047540738973   -1.69279769568270
N         3.84370119053937   -2.92985688088895   -0.35285166718225
C         0.72537548786068    0.48546177730698    2.20270409989939
N        -0.47654441798725    0.97425734268707    2.28699414845116
O         1.63481855741403    1.20064947316602    2.84732642322539
C         2.25857375915848    2.41963076816467    2.33850471782424
O         3.39970175827089    2.28476245382729    1.45584804586134
C         3.44741420461340    1.42365872648002    0.27936215877712
H         1.41131426269682    1.52666501058147   -1.12384632525689
H         0.74918223762468    1.89464220071881    0.49649547158381
H         0.28146073669363    0.42223319095602   -0.34942622647452
H         3.54550184806811    0.49952422901734    2.37153352633352
H         3.89475937407563   -0.95482594487714    1.28236872173261
H         2.36000074528064   -1.01363767588568    3.73849821167119
H         2.64770145236276   -2.35852552406889    2.60960704776571
H         0.15730574953250   -3.01435712388124    2.85872836971124
H        -1.04331209476754   -1.89976469698578    2.07614259818776
H        -0.33153942728088   -1.52351713936285    3.61285184723427
H         0.14929601180750   -1.88817351791943    0.06023116438149
H         1.55909120395552   -2.77835688528388    0.63510306859784
H         1.79620662156606   -0.69893769738679   -1.40642722772867
H         4.45161103263155   -0.15383619201332   -1.74756638608768
H         5.16347868255247   -1.67824298514510   -2.02817786277815
H         3.12398070059639   -3.40309253320497    0.18953620847415
H        -1.13192918044454    0.28278157058202    1.92352366511318
H         2.66704592513266    2.90035361801658    3.23354251663117
H         1.42363136901774    2.96854431878289    1.89242190934360
H         4.46346855923495    1.02635060285999    0.22963088313720
H         3.40060999029070    2.18324789412157   -0.50867876708367
