38
 energy: -53.129484358649 gnorm: 0.144168466359 xtb: 6.4.1 (79825abcba525fcdf90b791dcacef51065a7a4e7)
C         1.17037062265352    1.12308860106118   -0.14105021834550
C         2.57029249912370    0.36893855690603    0.28837421192857
C         3.21066318273647   -0.34159106085622    1.71453637219015
C         2.36041817953302   -1.34138456728319    2.57216020854255
C         0.96708591496442   -1.15018298511095    2.02635488201456
C         0.00678270993250   -1.95815326003985    2.88884600346864
C         1.12120374218506   -1.58977738658174    0.39176196440827
C         2.27348513806845   -0.92167387675286   -0.47292821123828
C         3.44527832849965   -1.83371792342938   -0.79835960994341
N         4.58524555874441   -1.16695774523397   -1.16675001221108
N         3.58828229887669   -3.12031113010661   -0.67523796576058
C         0.59910378720295    0.42423294734588    2.31084118361975
N        -0.63999384896202    0.81287956722750    2.24581647512246
O         1.64402532990399    1.12793223329414    2.71957623920358
C         2.22088933345166    2.40334943450528    2.30193483653194
O         3.36849815158139    2.35460786415844    1.41872272948204
C         3.53596936085865    1.52957297472883    0.22743520169301
H         1.15380841433095    1.36975049788684   -1.20739076168790
H         0.88117983857922    2.05357781482511    0.37208012235829
H         0.26550162384185    0.54358847533317    0.00699962777977
H         3.74919742341989    0.39407957054155    2.31745827633276
H         4.04125332793461   -0.92592133766149    1.28680120324669
H         2.39691286324563   -1.09380223054728    3.63719461375837
H         2.63855470777975   -2.39029243861567    2.40818435718535
H         0.33092771721358   -2.98910685246793    3.02131963918533
H        -0.97923651818344   -2.01348757000289    2.39566270798268
H         0.02752452248647   -1.53766867289635    3.90026984338832
H         0.17811261867229   -1.23259998886812   -0.03604977638169
H         0.99437064172821   -2.68289420198002    0.30741632255749
H         1.80352745291973   -0.71360098890853   -1.44958746116146
H         4.49357542219128   -0.23669959573604   -1.52722467128193
H         5.21425865553916   -1.80959518962909   -1.63509190639121
H         2.72149248356711   -3.56469411639954   -0.37971579555414
H        -1.30648878492701    0.09894684200606    1.95279210742549
H         2.66936706329074    2.85028864056515    3.19532707798443
H         1.53355778242489    3.15302400894443    1.89821697068772
H         4.59329378067686    1.26036836516537    0.27526134014667
H         3.41121468477256    2.25265762869576   -0.58605093389997
