38
 energy: -53.129220391954 gnorm: 0.148906503326 xtb: 6.4.1 (79825abcba525fcdf90b791dcacef51065a7a4e7)
C         1.13924804904275    1.12442058724909    0.06106956100564
C         2.56459798470879    0.37115144795660    0.39854856617623
C         3.33891242216009   -0.41167658159471    1.71630533852510
C         2.40427813535816   -1.44742838796023    2.43163688766987
C         0.98743617004729   -1.13382763261221    2.01926605277112
C        -0.06278164592431   -2.01309015954179    2.68472011158149
C         1.07930811050335   -1.58917793028364    0.38430268086659
C         2.22317853267186   -0.85890135427023   -0.44035508283468
C         3.32940684628131   -1.80232187336130   -0.88425360057398
N         4.45822824850467   -1.11105762834914   -1.24163562092255
N         3.32549132083416   -3.09819804980439   -0.99205325795721
C         0.66151385441667    0.43507403789294    2.37626886492724
N        -0.45842486038193    1.08208081758405    2.24301401715604
O         1.72725231969353    1.05644761267211    2.85815523821087
C         2.25633042031502    2.33753077556427    2.39686599669480
O         3.37612462110929    2.39804412588010    1.47934517767053
C         3.54817563451221    1.51623273151179    0.33012706693777
H         1.20594462696300    1.38187374943881   -1.00075339784731
H         1.05119743154100    2.09239257402205    0.57877755187444
H         0.32033762255398    0.43893365844224    0.25086010224935
H         3.78117874085270    0.28413735917578    2.43393246935785
H         4.21975727954389   -0.88694514699395    1.25531579098084
H         2.57065090594023   -1.31346747879340    3.50462418312028
H         2.68563809265724   -2.46357094295692    2.12709360035061
H         0.23685371691992   -3.05970277124558    2.66724858486441
H        -0.97752794739992   -1.91231036137071    2.07512335171068
H        -0.18971893521813   -1.77379355626434    3.74624719680373
H         0.06379003441203   -1.56108525093977   -0.02551834909889
H         1.42075581921875   -2.61514573895436    0.60545589611815
H         1.82295861651092   -0.46716614147352   -1.39134687983352
H         4.26661361556467   -0.25420383873955   -1.72414058346269
H         5.22320517798048   -1.71194628378985   -1.52751603933602
H         2.58996549060096   -3.66578061305996   -0.57613745299490
H        -1.31852842063576    0.54437679400190    2.13873094476674
H         2.69443634441293    2.86399764738953    3.25122684576096
H         1.41805870578805    2.97983875327715    2.11022032101948
H         4.60157161218821    1.22811157002627    0.33616897465580
H         3.52640028440973    2.10837466706478   -0.59132212236500
