38
 energy: -53.120193353773 gnorm: 0.160576884592 xtb: 6.4.1 (79825abcba525fcdf90b791dcacef51065a7a4e7)
C         1.06040703659784    1.20160537847192   -0.01326645852354
C         2.49067346478442    0.46779271880894    0.34560090347222
C         3.26856298952986   -0.33939426158306    1.64644773840634
C         2.42146840119859   -1.36030480397672    2.48202816876882
C         0.99906640995506   -1.18776844103256    2.00996881921856
C        -0.04802416723831   -2.12914109803652    2.58988944977751
C         1.07688252966095   -1.43990614460434    0.33090338324625
C         2.25651194038947   -0.78052565764816   -0.50306042881983
C         3.37733476287768   -1.78336998534108   -0.72416824562688
N         4.28940578537962   -1.32895925726446   -1.64147039528909
N         3.53627887983845   -2.96227392506301   -0.19895075744747
C         0.74203037382958    0.37581048808373    2.43924982154041
N        -0.50070222046348    0.74129779276259    2.55182008840625
O         1.79282688884407    1.07965330544445    2.83237829959750
C         2.26470752137376    2.35038898031928    2.28791070289908
O         3.45147970366028    2.25962852193299    1.46160585984638
C         3.50984302623413    1.57062695223922    0.17717379903235
H         1.12137107304328    1.30284408752751   -1.10149100483380
H         1.04308312008401    2.24884613867337    0.32692599059972
H         0.08789298196305    0.75925514628660    0.17400267357507
H         4.03022562733885    0.22823032220546    2.18720421560328
H         3.95260948239891   -1.00198863815732    1.09207573341261
H         2.48191662720433   -1.05757295468437    3.53161217424100
H         2.87132209741005   -2.35878064996629    2.41038081350632
H         0.13943228108326   -3.09947728067364    2.13295145995878
H        -1.07784319682399   -1.79601198973909    2.37304084721745
H        -0.01740543626239   -2.21532496419927    3.68160851225212
H         0.14940139553430   -1.03663157906208   -0.09000967722833
H         1.07169771126950   -2.53294533303044    0.17811709751450
H         1.83450848823129   -0.56143345036978   -1.49901701539161
H         4.45552181548757   -0.34897569880287   -1.76702237918273
H         5.13607239456783   -1.85312974423720   -1.83222005524312
H         2.83896086751264   -3.11340667312781    0.52702490096594
H        -1.20236100815661    0.09447862053973    2.19254496684956
H         2.82299431619818    2.82869649498311    3.09943667501477
H         1.39200736257335    2.95764048617419    2.02894201462565
H         4.55071929224034    1.24304827923932    0.13287703551406
H         3.11936257901837    2.23614401162779   -0.60050667168146
