38
 energy: -53.129689258862 gnorm: 0.154096758170 xtb: 6.4.1 (79825abcba525fcdf90b791dcacef51065a7a4e7)
C         1.08993279048891    1.08242489262041   -0.16263257630190
C         2.51179842464289    0.39763891569016    0.30884932527164
C         3.25118326646091   -0.32799726179139    1.67838488761366
C         2.43481131706051   -1.28469570604714    2.61448701172356
C         0.99804171260065   -1.18280046180758    2.16599315598083
C        -0.06148489770465   -2.05679818451128    2.82357999557773
C         1.23091414709639   -1.69122330209186    0.56094917976561
C         2.25950283506859   -0.93883113632778   -0.38652912634531
C         3.47325700373917   -1.79305997800997   -0.71504569144675
N         4.58017798460787   -1.18967160814410   -1.25398383873441
N         3.61364125343632   -3.08542255472192   -0.68307079555019
C         0.65655843712023    0.41071270107271    2.36406823778032
N        -0.51210394236340    0.95333860996730    2.18964721358098
O         1.65501091614160    1.17793002427523    2.77466324673704
C         2.15049967473437    2.46229967879672    2.28602132154254
O         3.25343644127088    2.34796845236885    1.35333475808704
C         3.42991325834277    1.58341743833251    0.12361412513137
H         1.37501288270574    1.32513665438486   -1.19123303558881
H         0.93754434536149    2.06878731715136    0.30278247328253
H         0.26124897380408    0.38616352619890   -0.09170794950615
H         3.70559857332516    0.38382724680756    2.37232856602585
H         4.01686787265196   -0.95342768577360    1.19171960158517
H         2.57280714623297   -0.92981650885536    3.64013074222798
H         2.67529320368635   -2.35389680323237    2.55589347398643
H         0.09972565337650   -3.12558026713336    2.69242906353163
H        -1.05412826716213   -1.74591639607969    2.45407056582802
H        -0.07994860737265   -1.93900064085740    3.91261558338795
H         0.24533136240579   -1.65914504094898    0.08385694989158
H         1.40490054737190   -2.76853500996077    0.72597466673536
H         1.95548486912857   -0.70483816490412   -1.42134225223399
H         4.47407092520408   -0.27084723369267   -1.63898861572512
H         5.16212057690278   -1.83470091387886   -1.77673091161414
H         2.78741298977992   -3.60474876225451   -0.39362076504145
H        -1.23256934613845    0.32796436732760    1.82962587212115
H         2.61857343011043    3.03313965354081    3.09477672592550
H         1.26464241558328    2.99966718249645    1.93400168146092
H         4.50056052283022    1.36805752487496    0.11832873909163
H         3.18875827891914    2.23070772742919   -0.72670017002256
