38
 energy: -53.127285462661 gnorm: 0.153767315899 xtb: 6.4.1 (79825abcba525fcdf90b791dcacef51065a7a4e7)
C         1.03547806268720    1.08827234707914   -0.06784393958859
C         2.44619971971540    0.32795545240462    0.31256575298226
C         3.18327747445523   -0.41496495430279    1.67405433117593
C         2.27648157137914   -1.37631685633323    2.51758619210491
C         0.90297010819284   -1.09182593601005    1.96227773608463
C        -0.14123879326631   -1.91201950589732    2.70779730136171
C         1.08372117259793   -1.62131746937735    0.35732998270412
C         2.27818079825764   -0.97546191689993   -0.46604151040227
C         3.48416257422980   -1.85975080584513   -0.73893403233319
N         4.43513718618012   -1.11892182166234   -1.39209987447633
N         3.91956050599575   -3.05067360228713   -0.45072807125914
C         0.67745581951629    0.49276918396562    2.32742209968319
N        -0.51924331707726    0.99566930661003    2.40252199898884
O         1.73779831732429    1.15162951658668    2.76979626797577
C         2.27385597413315    2.42119430099451    2.28530383763014
O         3.41571422496995    2.23767681839910    1.41241985513312
C         3.43233854201839    1.46464090077802    0.17547431765604
H         1.31266681914998    1.52498474842222   -1.03254453333632
H         0.71743667740851    1.88705547206280    0.62029807652510
H         0.22288578165538    0.39688150556506   -0.26329099655713
H         3.69500526266401    0.35139347739923    2.26191032266548
H         3.98726623483609   -1.01544865305474    1.21875152888343
H         2.46351026129028   -1.15596193796779    3.57275970353564
H         2.54676471683362   -2.42638364144043    2.34799107767892
H         0.38805619273075   -2.85293565702528    2.84924758396039
H        -1.10775498952496   -2.11052030874235    2.21285342904149
H        -0.26266757322766   -1.43602611942671    3.68703222814253
H         0.14666537478379   -1.61332432354228   -0.21001643990920
H         1.17236613661567   -2.71170810964716    0.50325984798184
H         1.87067371324334   -0.72650161242775   -1.46101617913608
H         4.27166463972717   -0.19881312464392   -1.75321249882850
H         5.39434236915589   -1.44066684216592   -1.45835727820493
H         3.37955137033326   -3.65065391111357    0.16939121483854
H        -1.31613079120760    0.36050645971051    2.43881556174714
H         2.84236000233398    2.88003810513041    3.10096440621736
H         1.49579985865478    3.09975106087327    1.92251718956986
H         4.49959555895105    1.25770881762348    0.07138316213512
H         3.11813751036100    2.19637489674059   -0.57686730960915
