38
 energy: -53.124779567510 gnorm: 0.141874450174 xtb: 6.4.1 (79825abcba525fcdf90b791dcacef51065a7a4e7)
C         1.02526242399613    1.00537775588652   -0.04477124373132
C         2.48148654843087    0.36203949949990    0.37766938373283
C         3.24692778450032   -0.37773851414383    1.72514616258765
C         2.34092894383820   -1.30561881598730    2.60618333955828
C         0.92494231025711   -1.10288021050674    2.12689722819392
C        -0.18824687987709   -2.04487041342733    2.56547832463534
C         1.19763923103352   -1.61895691285518    0.53059187974942
C         2.28645913820112   -0.93665054214974   -0.40253889809693
C         3.52207432546250   -1.76017363507147   -0.72795258812777
N         4.47923411804752   -1.07673150021369   -1.43262123407835
N         3.72082807379427   -3.03912463391477   -0.60260325483197
C         0.67768511569533    0.49994980208434    2.38170809808709
N        -0.45237280997864    1.09586503936500    2.13985806979871
O         1.74531396697460    1.16213151328758    2.80099564729390
C         2.28769072348421    2.42352279378515    2.30239265046062
O         3.45550055155740    2.26870698668969    1.45877090884407
C         3.45464652436914    1.50651214047840    0.21500507753512
H         1.16674558144116    1.08765760268536   -1.12708871274854
H         0.70949207462280    1.97295076277959    0.37574724076922
H         0.13761261177054    0.38608688175258    0.02652869576190
H         3.65469153680224    0.28823034128781    2.48997257386052
H         4.12427068143277   -0.94674745883214    1.37761560283240
H         2.42937466792105   -1.08379609814256    3.67384395349069
H         2.61097783945903   -2.36431020618741    2.50273356236103
H         0.07886936799064   -3.08829842184388    2.40613137982485
H        -1.20784100003914   -1.90584482369719    2.16594701969335
H        -0.42724222225483   -1.95651891607524    3.63097863820276
H         0.18469648128434   -1.69370004302815    0.12025069851804
H         1.59277506201753   -2.62238117111434    0.76535272409360
H         1.85899027335717   -0.84596388478539   -1.41598063064765
H         4.16949549877867   -0.22050111323669   -1.85054124346433
H         5.17123239012854   -1.68364626311411   -1.85780043491206
H         2.95826292969235   -3.55959644386436   -0.17395693057949
H        -1.23491318925408    0.44322978522597    2.10143295619272
H         2.76544535617090    2.96145251939538    3.12787356851035
H         1.47885173074735    3.00114205189889    1.84461516847057
H         4.51163523137481    1.24726683940676    0.12411975376453
H         3.24818515856298    2.17158262270725   -0.63070752394781
