38
 energy: -53.135211557275 gnorm: 0.137122226754 xtb: 6.4.1 (79825abcba525fcdf90b791dcacef51065a7a4e7)
C         1.24717701748897    1.23716139881617   -0.19310159117959
C         2.56256679883508    0.41297452688457    0.35771109998830
C         3.28552061585571   -0.33154806102226    1.72588117732249
C         2.47940644380203   -1.37226481867109    2.57741557947288
C         1.04032242876027   -1.21248497506444    2.15392545061521
C         0.05444937602588   -2.19365220492510    2.77380796203299
C         1.04777935246401   -1.50258559492212    0.47920888157771
C         2.26162501200223   -0.90547352137138   -0.35256013452558
C         3.41772913848742   -1.82499834683093   -0.71134496897554
N         4.40037330191892   -1.26600629295457   -1.48706671929145
N         3.55196400685611   -3.06975555789857   -0.35993119990626
C         0.68687788443760    0.37437360077691    2.38214824529945
N        -0.47704738900243    0.86333420495426    2.07096846129120
O         1.63093298153348    1.19637898472785    2.81479728096124
C         2.07128379897575    2.47517175639918    2.26283199900143
O         3.24846053493358    2.44600974416024    1.41852762197601
C         3.52850727696233    1.57266016219229    0.28418663125375
H         1.50096633034816    1.35028356799147   -1.25187112224893
H         1.17857974252709    2.27217220226154    0.17675147148458
H         0.27116636459213    0.76944930833711   -0.12115951598726
H         3.74935036511636    0.40434876301933    2.38774450224733
H         4.07244775450811   -0.89113957232104    1.19495532838942
H         2.54621694563912   -1.24782923466139    3.66230234668113
H         2.86212278559759   -2.36391417145544    2.30425721105499
H         0.46386480571958   -3.20226515038559    2.79754594757935
H        -0.82523854860092   -2.17864121262496    2.10713758096244
H        -0.32516435054902   -1.96443309976975    3.77559022507111
H         0.10033583088999   -1.16121786171256    0.04811923415411
H         0.93055150209544   -2.58923329117777    0.32571746026151
H         1.81658549558484   -0.67821367160629   -1.33658789831679
H         4.21495758307389   -0.56540977504651   -2.17881171852429
H         5.14929167563015   -1.93760947068796   -1.61377477020977
H         2.79728184294045   -3.47607657306560    0.18915188681310
H        -1.09458005458891    0.08651506142911    1.83648147267150
H         2.35355053743841    3.04784327424097    3.15244396349222
H         1.21692736007701    2.93312293673952    1.75511106898041
H         4.56047021196344    1.30629036502770    0.52249951039666
H         3.40302511380998    2.17569437111531   -0.62178180867571
