38
 energy: -53.126476962727 gnorm: 0.154815826969 xtb: 6.4.1 (79825abcba525fcdf90b791dcacef51065a7a4e7)
C         1.04214470245562    1.16850731073053    0.03719660767523
C         2.46885030460560    0.39722325118092    0.32453074887696
C         3.34739217898687   -0.35089532055239    1.59628081739538
C         2.49729080903705   -1.39679639361232    2.39718085087811
C         1.04266972153624   -1.18366808683236    2.05881702923201
C         0.00629706953972   -1.98771603813783    2.83233350335878
C         1.09077565880619   -1.58856869161413    0.40877737766834
C         2.18624586328628   -0.86644028722682   -0.48580599698424
C         3.36204062469369   -1.78763454017121   -0.76818349921445
N         4.47973064540483   -1.21708238981809   -1.32049243941286
N         3.47229392070993   -3.07683039923165   -0.63876400934349
C         0.67428522658697    0.40099256209855    2.27852654772350
N        -0.51869451344651    0.90463783613895    2.39590675478524
O         1.68850146058199    1.09719854318695    2.76922065721722
C         2.27305885458424    2.37235434808087    2.36159856032969
O         3.30045730814535    2.34978565187606    1.34013469502094
C         3.47607693665827    1.51146099883568    0.15934484600364
H         1.22705642314539    1.36210699503405   -1.02418239145051
H         0.77172715655304    2.09989860923834    0.55885629402536
H         0.12504229744921    0.59036263970805    0.07182279534567
H         3.88441098337947    0.34636478685693    2.24449711715704
H         4.20106245178545   -0.79673749571931    1.06078940754500
H         2.63599199332595   -1.15367405221086    3.45481058891852
H         2.81647540241035   -2.42410888457588    2.17991152600730
H        -0.45059999045172   -2.72941583832245    2.17917882274324
H        -0.78851663081058   -1.30314738291271    3.17608123529272
H         0.51921972537709   -2.58270197700968    3.59595498584153
H         0.12127306262326   -1.43757514939835   -0.07834180177474
H         1.30571753148311   -2.67019266010480    0.45344046741816
H         1.74895619376182   -0.62019644836072   -1.46874015177139
H         4.45201443857133   -0.22507502490511   -1.45789264404540
H         5.24253630766632   -1.88235771654720   -1.37982833739557
H         2.65671500068465   -3.54330906152903   -0.24714831025562
H        -1.37008071934588    0.38152466078141    2.19274958295467
H         2.90141235351214    2.69498022872756    3.19833092243407
H         1.46379338189312    3.09752273918977    2.23258329376126
H         4.54870050798546    1.31799415072054    0.22821168279056
H         3.28741819821392    2.17954210818768   -0.68815167641149
