38
 energy: -53.127139258163 gnorm: 0.160186813410 xtb: 6.4.1 (79825abcba525fcdf90b791dcacef51065a7a4e7)
C         1.10317388552809    1.09218916700767   -0.17082483857032
C         2.48958719554856    0.32887521068659    0.28539752289981
C         3.22799786405986   -0.32992341028016    1.68882174535559
C         2.40164896683323   -1.29162453426721    2.61093927001418
C         0.97619010508307   -1.15363168967275    2.13674382820093
C        -0.08343827042550   -1.96647665015886    2.86842676860603
C         1.10877336810375   -1.57463435664813    0.49538220334288
C         2.29257429472302   -1.01910091070115   -0.40561821572568
C         3.53362251982015   -1.82641047780074   -0.75040766939974
N         4.52523257890719   -1.15016274247337   -1.41313264189320
N         3.78103538670772   -3.09298172812873   -0.59067261854076
C         0.64847132414092    0.43749002865822    2.37351572101026
N        -0.53962138404196    0.89929622919335    2.11698476919140
O         1.64214843028938    1.13593524549720    2.90162382664677
C         2.12883919617885    2.36838562013707    2.28673875235168
O         3.25370929960111    2.34282145284818    1.37379894128156
C         3.45541257003349    1.48845642598916    0.20877905036053
H         1.39986536466293    1.46595232063891   -1.15595114170770
H         0.72990464548709    1.96364188416437    0.38951833486513
H         0.30726051564303    0.35667591127213   -0.21631355918153
H         3.80112459443221    0.48704815664163    2.13472358290518
H         4.07194900467906   -0.87632325069744    1.23774201124542
H         2.51085243279114   -0.81510726793608    3.58967982136164
H         2.71248141236367   -2.34340786523133    2.57105507605798
H         0.21048316406768   -2.99886030038098    2.68600211299650
H        -1.14053393359671   -1.71632715153256    2.67221374254641
H         0.09594758515031   -1.75967710163767    3.92921438170403
H         0.17051535680956   -1.50293711980052   -0.06546611935195
H         1.27372182118158   -2.66531164814632    0.53171768916746
H         1.92256838823688   -0.80911041441154   -1.42395876353923
H         4.49729257188512   -0.16779417731101   -1.60780407851634
H         5.25251323613777   -1.74701757460126   -1.79103691540500
H         3.02609835635656   -3.56116645749553   -0.09367431421856
H        -1.23128308426339    0.24618056534886    1.74980260705691
H         2.37563791006787    2.99869974841233    3.14745422490203
H         1.28553179472365    2.90483458636274    1.84122793521944
H         4.51513251221975    1.22473306010260    0.19707324572599
H         3.27180568380144    2.13696142947501   -0.65487864828527
