38
 energy: -53.126700165051 gnorm: 0.151906672816 xtb: 6.4.1 (79825abcba525fcdf90b791dcacef51065a7a4e7)
C         1.04017583972555    1.15075005967714   -0.05373857496439
C         2.46699797916722    0.40248407739612    0.28861431987765
C         3.26239012619804   -0.35627554375869    1.60789466895311
C         2.43958300357266   -1.39854153598436    2.44137670732896
C         1.01371809229464   -1.17180326619461    2.00395781355075
C         0.00650161992358   -2.10276834070798    2.66555295276991
C         1.08569735182810   -1.62460963532909    0.36729202295629
C         2.22306101544950   -0.89999907960330   -0.47124675582739
C         3.39661117271286   -1.85839489195503   -0.59407494909407
N         4.41043968533677   -1.15951839101073   -1.19700887820443
N         3.63624108455770   -3.11023168726283   -0.33636713930207
C         0.73373882162020    0.39380635459414    2.41090605972085
N        -0.42709447598319    0.97927237625902    2.42915199039331
O         1.80523334860499    1.10523475885243    2.72695532245449
C         2.19842743269940    2.43750868069720    2.27492649610082
O         3.27748027392696    2.45534012657733    1.30809022720099
C         3.37922121169266    1.59703352598726    0.13299290794182
H         1.19965424530745    1.29220009682999   -1.12740383460859
H         0.83461467969827    2.13279003638906    0.40022874548686
H         0.25288233790377    0.40919625342440    0.02868690186775
H         3.83726155008042    0.29439487727619    2.27189472742334
H         4.06943815112865   -0.95284086210467    1.15285341645021
H         2.66867289287257   -1.23060803044233    3.49790087179763
H         2.68596726696018   -2.41065279895618    2.09586069175923
H         0.43728103741163   -3.10271021370444    2.67102122742325
H        -0.88849447849311   -2.15053047882720    2.02117237569163
H        -0.36918799730997   -1.80796497477931    3.65153670805989
H         0.09696205518845   -1.46402373165523   -0.07614243238562
H         1.32396466494204   -2.69939611633647    0.44582810263122
H         1.88859508672351   -0.58773651664839   -1.47555869961937
H         4.39735205979994   -0.16170289655157   -1.28599525807846
H         5.24258783158138   -1.73476182246368   -1.12911959708648
H         2.75873230120417   -3.56295530585194   -0.08907411154176
H        -1.22496625685513    0.38739428472819    2.19923971856642
H         2.61390763650125    2.94920503073523    3.14932896021466
H         1.39874795279713    3.04958643867647    1.84679300267687
H         4.44763307875196    1.38377771434034    0.05741887329736
H         3.26511155433540    2.22804964171669   -0.75524832608993
