38
 energy: -53.134183737338 gnorm: 0.142379733984 xtb: 6.4.1 (79825abcba525fcdf90b791dcacef51065a7a4e7)
C         1.09724586333490    1.11087140608561   -0.07550885598647
C         2.47627169251968    0.30915725943231    0.33494344347341
C         3.36884131428694   -0.33085877789379    1.65500572145609
C         2.49850277954485   -1.32079071765453    2.50386840571110
C         1.08818748635414   -1.10871208161597    2.01206592809987
C         0.00519464922624   -1.94537347226398    2.67990824989208
C         1.11189951780600   -1.62158713956275    0.39179236256696
C         2.26466686850864   -0.96481068654794   -0.48089082454041
C         3.50624165778012   -1.82469529247434   -0.65386405877027
N         4.51619035400188   -1.16524519397646   -1.30573452141377
N         3.63695512508423   -3.08154305298189   -0.34697833342772
C         0.64222423203660    0.42423927440942    2.39456517092686
N        -0.57729707448857    0.86413529905349    2.49404677676857
O         1.66584349130134    1.16473865448334    2.79203506335514
C         2.10207320238206    2.41372266911322    2.17265793620649
O         3.25540266741525    2.35041117950370    1.29786186359717
C         3.38954235825524    1.49443788372423    0.12431534977798
H         1.05309719076159    1.20212187263719   -1.16542756944617
H         1.06048506138267    2.14370671551713    0.30481219889706
H         0.23888091206206    0.53532814486917    0.25386422462773
H         3.74597547913998    0.47014378864768    2.29602829681740
H         4.08355489225275   -0.88028344742659    1.02128948388567
H         2.62403340797614   -1.23086739112128    3.58695796877872
H         2.81699316476922   -2.33062051551887    2.21531446477918
H         0.24400001103815   -2.97275104859932    2.95000428021684
H        -0.89525121278489   -1.97502022493795    2.04206509871095
H        -0.30027594482140   -1.35383213773404    3.54995552333872
H         0.08909373635213   -1.48093073137322    0.02559087080018
H         1.34119640828521   -2.69936529747440    0.45442126822042
H         1.86197851405688   -0.69038860355360   -1.47111930736752
H         4.49858443303719   -0.17633038161231   -1.46530625321664
H         5.37486449938626   -1.68538343114546   -1.44757742361750
H         2.83723291671489   -3.58637555224198    0.02948242941991
H        -1.24170979028035    0.14234434083441    2.21592402274751
H         2.46372852122162    2.94500259253769    3.05921515424027
H         1.24168666827632    2.93288951336571    1.73950029393342
H         4.42476621227792    1.14733547870507    0.14722591278485
H         3.25768245680734    2.10904021506651   -0.77293143341539
