38
 energy: -53.130085123296 gnorm: 0.149601897654 xtb: 6.4.1 (79825abcba525fcdf90b791dcacef51065a7a4e7)
C         1.06701964431181    1.14464896686896   -0.10444670469194
C         2.44482164244418    0.35027692762074    0.32399654593633
C         3.19263876914778   -0.36666835135910    1.69353095337377
C         2.38268259605743   -1.40443411327972    2.54502111661847
C         0.97345852355420   -1.16021160148650    2.06514699837201
C        -0.01592367213442   -2.13148088725484    2.69494695038568
C         1.08296053723043   -1.59341135946168    0.42525772296437
C         2.24055547859635   -0.95008474805918   -0.45104625314557
C         3.48882514193716   -1.77313832032507   -0.72533610768764
N         4.49047743747500   -1.04702680428734   -1.31631890693026
N         3.71647585768273   -3.00982045696174   -0.39409055324209
C         0.69871863849198    0.43301467580868    2.35023788771333
N        -0.48043388961824    0.97487021640724    2.26881774384840
O         1.70768742409086    1.17588475976007    2.77947451349547
C         2.21343272234392    2.42498353073947    2.21568428923706
O         3.33616137290443    2.33969118586636    1.30373529731150
C         3.46952424368604    1.44817074930174    0.15686964753954
H         1.29056329943990    1.28112456777334   -1.16727369259290
H         0.80782222867349    2.09777260142931    0.38249915752413
H         0.10536981285302    0.65277681688862   -0.00535862617988
H         3.71459052345172    0.40589094551388    2.26402524357332
H         4.08027373677062   -0.83818176998628    1.24180260902912
H         2.50702203954589   -1.10701438082043    3.59049152074942
H         2.63988981103693   -2.45909022533939    2.38377390788940
H         0.15001130783256   -3.15197334423532    2.35355965407961
H        -1.05046687519007   -1.86505619308173    2.41698326642197
H         0.09681394697888   -2.16308610048523    3.78421598393460
H         0.06656347574174   -1.55124516200754    0.01883619551581
H         1.31168409511308   -2.64328525391854    0.67736000652371
H         1.83228434113247   -0.78386360269388   -1.46282837768372
H         4.47941835630250   -0.04830640732890   -1.39481020407468
H         5.35889945257511   -1.56992186112824   -1.29610864254111
H         2.92841649473835   -3.49249344661043    0.03266863305686
H        -1.16016825519505    0.25005389755073    2.03994831619020
H         2.45800232325320    3.08873849918219    3.05153815034677
H         1.35149071171881    2.90723537860196    1.74460693254823
H         4.50788045088682    1.14362355301176    0.30438505527942
H         3.26361289392261    1.99987023252828   -0.76692851879506
