38
 energy: -53.133016503272 gnorm: 0.147345609596 xtb: 6.4.1 (79825abcba525fcdf90b791dcacef51065a7a4e7)
C         1.14148359020294    1.10774367991534   -0.12755685640684
C         2.53034144634557    0.36420832590309    0.35323201440541
C         3.32827101479860   -0.27050738872122    1.73500979606153
C         2.53027013245197   -1.36155421451577    2.52926019204436
C         1.10370182817546   -1.11120312483158    2.10728448981383
C         0.08204951579195   -1.91387478193623    2.90153503294508
C         1.14857633917887   -1.59308198141129    0.47796910774514
C         2.29666366764457   -0.94133527446645   -0.40459847748115
C         3.47031653561721   -1.85175693524534   -0.72786393479243
N         4.62099071113336   -1.31545001875468   -1.24567638090255
N         3.48846055280336   -3.14692173687100   -0.84253774136109
C         0.59897233303242    0.43811217056384    2.30728220773694
N        -0.61001799326256    0.91056224494502    2.23131720670900
O         1.63097906899075    1.12705429625931    2.77035772350870
C         2.03227541379805    2.43693435686550    2.26334593409286
O         3.14493702740285    2.38408459557983    1.33671957126594
C         3.42647738285602    1.56580611907223    0.16238975210473
H         1.22076772840674    1.17409612011750   -1.21728615256455
H         0.94956547496719    2.08893587830857    0.33415034911435
H         0.24813938863764    0.50688642762600    0.00448011412618
H         3.68542450297127    0.49036312400387    2.43376775295110
H         4.19416958276624   -0.67142961183364    1.18386527836316
H         2.71035092479535   -1.30985858204964    3.60714034425223
H         2.85166710405525   -2.29093728843423    2.04201608057234
H         0.18972322653543   -2.99676345963568    2.93679182129352
H        -0.92854771032748   -1.76958491593561    2.48153592091594
H         0.04796303022046   -1.49594817077366    3.91365713816918
H         0.16764104451374   -1.50050888717691   -0.00079555273480
H         1.40978257314272   -2.66285389045111    0.55189192235144
H         1.80951521553626   -0.77241622034154   -1.38039076464385
H         4.78826284435006   -0.34006236776371   -1.08958481363941
H         5.39280490919769   -1.96156523107787   -1.36742391002039
H         2.61434426063919   -3.59884203884542   -0.58210940036156
H        -1.31223471035877    0.24422734387758    1.91089841930574
H         2.43914441048299    2.92453839834705    3.15538660103888
H         1.15329350429072    2.98425657734985    1.90943359619312
H         4.48366764410523    1.33967390180646    0.31700660548232
H         3.13813775847727    2.08963177099759   -0.75556547490488
