38
 energy: -53.127029233636 gnorm: 0.143566086337 xtb: 6.4.1 (79825abcba525fcdf90b791dcacef51065a7a4e7)
C         1.10943584207389    0.91586940400372   -0.07411776900559
C         2.57104391870048    0.31241362658040    0.38682893626069
C         3.29222814065789   -0.38909066426575    1.77846484753524
C         2.37655820699598   -1.17406589860967    2.78015577940602
C         1.02122266745419   -1.05681416403739    2.12811752199228
C        -0.05053656924818   -1.98145684966347    2.68959520209626
C         1.26988496810658   -1.70486796308873    0.57663988255037
C         2.32011330971178   -0.98786309595355   -0.37453216825533
C         3.47294019392596   -1.85837249096746   -0.84785320496053
N         4.53819248738967   -1.13714788913875   -1.32206680430385
N         3.54291790049555   -3.14230541203633   -1.04163281231776
C         0.61021347776598    0.51482121356969    2.36510375004160
N        -0.60906019686216    0.96649479332825    2.36492648932323
O         1.58753965328396    1.28063617419863    2.82605824552772
C         2.21178657322759    2.44579148664192    2.20427505276741
O         3.38309596452315    2.34239022937321    1.35764180557800
C         3.42729737769057    1.53364008092573    0.14443754118780
H         1.24975532215754    1.41139079727857   -1.04002022284768
H         0.63075869305933    1.70296569664958    0.52928247228541
H         0.31843120950489    0.17456553728357   -0.03796100622542
H         3.86133716940583    0.42140194785939    2.24102497846853
H         4.00441969771350   -1.13055952569111    1.38187141968447
H         2.32143834005623   -0.75578054501913    3.78957458064267
H         2.65673548594353   -2.23458286430384    2.81565490781000
H         0.03239905690724   -3.01420813987340    2.35488486334258
H        -1.04945847890718   -1.63473301046307    2.37263595204310
H        -0.00376993697314   -1.99125701920923    3.78409624423535
H         0.32717106538476   -1.84097632461538    0.03554429140186
H         1.69029844222091   -2.70057632506921    0.80007349676849
H         1.89691268219637   -0.88132459909837   -1.38822276579849
H         4.59857716567423   -0.13809575495137   -1.27763552195160
H         5.12491513462336   -1.66218660393058   -1.96087457751015
H         2.76130160951087   -3.57257937080429   -0.55165886052830
H        -1.24463512615293    0.25910683596447    1.99692444422773
H         2.70261762437955    2.93951897302637    3.04947010594626
H         1.42773511439956    3.05556333597204    1.74507319175561
H         4.51226684934796    1.54560976230352    0.02037563105732
H         2.92319996877021    2.13392650817627   -0.62088386692428
