38
 energy: -53.123896305907 gnorm: 0.152124448865 xtb: 6.4.1 (79825abcba525fcdf90b791dcacef51065a7a4e7)
C         1.15311063600996    1.06594790547174   -0.07250142809321
C         2.57176935486261    0.30724534464675    0.28063701843785
C         3.27731973611975   -0.45511831371603    1.64806737340592
C         2.43097793864556   -1.35564185257851    2.61283946369026
C         1.03221794510781   -1.13483781403997    2.09269299472165
C         0.00599453982854   -1.98179910299935    2.83324093266907
C         1.09746516690508   -1.68909656495661    0.48725549152808
C         2.21569474894631   -1.00741966097361   -0.41089983580947
C         3.39507628343535   -1.83316901126307   -0.89877935364199
N         4.56600258643794   -1.14714844272245   -1.09400557010269
N         3.31420868623020   -3.05964948660460   -1.32320511967218
C         0.70163276564267    0.43656416067744    2.43406973208444
N        -0.38506706828715    1.14005349650307    2.55582185650014
O         1.77761426630538    1.10338573543197    2.82359621536359
C         2.17282844280180    2.39756803524152    2.27333862480668
O         3.38004923556697    2.26773606659418    1.48263830426749
C         3.44932606813181    1.53600288247707    0.22261353701165
H         1.22248546944032    1.34764174999367   -1.12797964628382
H         1.02962370037971    2.07314395844424    0.35534354928660
H         0.22002104936347    0.53353569894810    0.07719199893030
H         3.77565179926668    0.31947848544635    2.23663358964398
H         4.10651171031337   -1.06522626482640    1.25501751779980
H         2.67936647356629   -1.03890376390692    3.63014338704105
H         2.68614771843105   -2.41533568993964    2.48480398084969
H         0.17570660966179   -3.03939419823569    2.63785672135057
H        -0.97411220087739   -1.80709563594797    2.35638136437992
H        -0.08980654642685   -1.72801629140521    3.89467021711630
H         0.13401789674863   -1.38643099806398    0.06277657387484
H         1.26283056555242   -2.76351036294035    0.67802884899950
H         1.81376045423678   -0.76773821561383   -1.41040945250776
H         4.55713714306419   -0.14979831942469   -1.18855582816719
H         5.04344602373194   -1.57619392198467   -1.87883181403375
H         2.41786375423203   -3.46862277452152   -1.06739114480446
H        -1.20643639962216    0.64325418126727    2.21184281826177
H         2.38464989117203    2.89716194265010    3.22442970004137
H         1.31086505739689    2.90778021438179    1.83273970518283
H         4.51234364593124    1.30208504780428    0.13334170117022
H         3.23805088314072    2.26683116359247   -0.56569328930807
