38
 energy: -53.126251244290 gnorm: 0.153757333138 xtb: 6.4.1 (79825abcba525fcdf90b791dcacef51065a7a4e7)
C         1.15775716846493    1.06930106606084   -0.04887404559148
C         2.53064319948666    0.26696166236561    0.38050263893839
C         3.21720035700263   -0.50279729604326    1.75344688028523
C         2.30233935515107   -1.34105988097493    2.71176178390792
C         0.94781262673278   -1.16243213873643    2.07208551030759
C        -0.12269284163641   -2.00427810553566    2.75340961306728
C         1.13192733026072   -1.69604855952593    0.46888720510936
C         2.24388378533964   -0.99879687414980   -0.42509083586828
C         3.50293944497897   -1.75841458577347   -0.81056329477125
N         4.31111406877888   -0.95438395475678   -1.57226824969116
N         3.89197994399131   -2.94717894642139   -0.45501028386964
C         0.61353967893539    0.43278696936603    2.26872313348706
N        -0.58168802503345    0.94311443942598    2.30914510312538
O         1.65036125406075    1.18631333425388    2.60236525422308
C         2.30733844522411    2.44747891105542    2.26810818458922
O         3.37953253892823    2.37562338918820    1.29616067272667
C         3.49626771481017    1.41575136826949    0.20395476081509
H         1.23896201908734    1.16933231188382   -1.13588742316499
H         0.90726101716741    2.04773193946760    0.39006665631675
H         0.30854442938363    0.39934071386575    0.03185956550864
H         3.71892283973202    0.36086912707156    2.19740645072375
H         4.01607643541107   -1.09283560096947    1.27602563674585
H         2.54600149003089   -0.94013941399443    3.70010316634510
H         2.56983416463328   -2.40543097589858    2.70770934029177
H         0.21140048996770   -3.03125378373249    2.61489187261536
H        -1.08488723288684   -1.76091306272105    2.27021092040811
H        -0.20869429730039   -1.74065656879856    3.81327900201572
H         0.15299693383653   -1.81667370731745   -0.00773032727042
H         1.42024713042736   -2.73935993109346    0.68447544182559
H         1.69243666388453   -0.74552445169624   -1.34692433537104
H         3.94218457751572   -0.04698210672848   -1.78259784065154
H         5.24361105705330   -1.26338300903286   -1.82317348389876
H         3.22562220301898   -3.48013757499303    0.10001821576732
H        -1.32275041073097    0.24821377685018    2.22129112622355
H         2.84570680685022    2.66992754739567    3.19531513823006
H         1.57137455434916    3.19266046173907    1.95111237107604
H         4.55815533354658    1.16585525268474    0.25533581546838
H         3.33989081366121    2.10525295175814   -0.63288971763763
