38
 energy: -53.131105949229 gnorm: 0.161208827816 xtb: 6.4.1 (79825abcba525fcdf90b791dcacef51065a7a4e7)
C         1.19075636657137    1.16791874969682   -0.11209883106292
C         2.57848460893241    0.40223369238993    0.33608152079825
C         3.32911309206812   -0.33730283573345    1.69199747500999
C         2.40506766995573   -1.28856579245863    2.52821581987441
C         0.99504906315450   -1.13080182297415    2.01558109744509
C        -0.00288121072048   -2.08652458594566    2.65559540756286
C         1.18115965231770   -1.57969000017530    0.38685404142590
C         2.30484638376090   -0.86229697652044   -0.47597804879555
C         3.40851934983368   -1.87815048172358   -0.72250770155985
N         4.27103588523700   -1.47986007409706   -1.71106012401379
N         3.68730768396635   -3.08310893829277   -0.32090673458170
C         0.66772888070283    0.45433908552410    2.29002349239451
N        -0.55599584921737    0.89380895266115    2.29120118234448
O         1.67031711846495    1.14266786120183    2.81455985598637
C         2.07931873694462    2.48076409870682    2.39491522390133
O         3.30054175324732    2.34305529786905    1.62738932052361
C         3.42141362067141    1.65630209403634    0.34611839784722
H         1.45029395145812    1.38084401808978   -1.15397292958546
H         1.00259888629796    2.18782103508783    0.25822579371889
H         0.26746852447729    0.59909077533086   -0.13448981570206
H         3.77923360311609    0.44061003306304    2.31408133506931
H         4.11095298593375   -0.96434976522981    1.23393878486802
H         2.67095001788830   -1.05419171673204    3.56325327176285
H         2.70641091754256   -2.32911829053468    2.35243618149462
H         0.42539261994626   -3.07011886150283    2.84162869887067
H        -1.00613087470275   -2.13891223077492    2.19813370476433
H        -0.11504643043483   -1.73796474889758    3.68813630287595
H         0.17176603963161   -1.41829935307554   -0.00696957296005
H         1.36908504527615   -2.66541049187096    0.45010174962058
H         1.87286443771867   -0.65217491329809   -1.46958670054467
H         4.27943026869775   -0.58297259713949   -2.15743216871041
H         4.88899390219003   -2.20934089857799   -2.04865470832045
H         3.23213460228531   -3.39525869557732    0.53437927922770
H        -1.33574105849407    0.29130968023817    2.02895941066474
H         2.38734349746376    3.11371864509019    3.23367974255347
H         1.28893191774530    2.97479634459357    1.82163905224980
H         4.49307544515502    1.45355838483407    0.29017812040203
H         3.26661451491825    2.37423691252107   -0.46676638465395
