38
 energy: -53.130546991813 gnorm: 0.136903607124 xtb: 6.4.1 (79825abcba525fcdf90b791dcacef51065a7a4e7)
C         1.21805283457062    1.15891919679162   -0.09090940209403
C         2.57791730673177    0.34452380234293    0.35681557821068
C         3.27842522073351   -0.37789533562500    1.74831286993124
C         2.41068875745429   -1.34184658220866    2.62913844411371
C         1.01303756372012   -1.14317938466877    2.09721855735918
C        -0.05893840962078   -2.05468456124396    2.67938259745364
C         1.12733863634639   -1.58861631437501    0.46093901110592
C         2.29363689286909   -0.94810924067886   -0.40583828923484
C         3.47724486492686   -1.83502968703968   -0.75694158706457
N         4.45535735388866   -1.16792709207952   -1.44837198650265
N         3.64927253374317   -3.10474517630975   -0.53522055891328
C         0.58126949924416    0.41530646132280    2.37975531385720
N        -0.58566653133789    0.98687270655163    2.33274809509773
O         1.68750354908565    1.09162862882243    2.64985275445654
C         2.09673716047027    2.43542298768375    2.24906596846247
O         3.25182386419036    2.41728654167483    1.37448540904482
C         3.48266903625589    1.54772451801276    0.22623998520639
H         1.17515821173721    1.02526429537421   -1.17649448711291
H         1.24187181148489    2.22379520077872    0.18876181845021
H         0.29201523836896    0.73741000609035    0.28500472634570
H         3.71738896585183    0.43585377283885    2.33129524813872
H         4.19801729167889   -0.87940070970750    1.40608193746104
H         2.56717481936883   -1.09134643324699    3.68255618553505
H         2.63356254873339   -2.38694207451319    2.37902163378453
H         0.23296764988510   -3.07797327378443    2.44882755280090
H        -1.06554531763477   -1.78236842858978    2.31728865520353
H        -0.04961427851576   -2.11823433234136    3.77304167340938
H         0.22816045886853   -1.54603567378400   -0.16330847551909
H         1.37033050935394   -2.66032772025795    0.56338328107761
H         1.95738258147672   -0.78292028707239   -1.44394401469151
H         4.32328329294271   -0.27956155686497   -1.89231875372747
H         5.19184659871887   -1.78409723598047   -1.77379852967103
H         2.93648662209232   -3.36206653650333    0.14437942769873
H        -1.34202470461026    0.31261809128664    2.21837264568168
H         2.45769109125417    2.86570606448510    3.18906882210100
H         1.27199532408128    3.01357338063643    1.82131863964532
H         4.54441410436382    1.35449845951129    0.39373475157007
H         3.22348390907319    2.10336275689122   -0.68164991390214
