38
 energy: -53.130395985197 gnorm: 0.160624284080 xtb: 6.4.1 (79825abcba525fcdf90b791dcacef51065a7a4e7)
C         1.18305443727239    1.15899147520595   -0.11652104905933
C         2.57738632428807    0.39470083616462    0.31316176244355
C         3.29836121359994   -0.35584122448336    1.67908537342549
C         2.36662046007748   -1.27438481805217    2.54289039337571
C         0.96416614313440   -1.19282361172983    1.99306681157869
C        -0.09723983194970   -2.05394699227347    2.66446315091164
C         1.11752614587342   -1.67551232599248    0.37060513414369
C         2.29010090468042   -0.92750165939773   -0.39578401190630
C         3.46196051689328   -1.84740699802433   -0.69802309938340
N         4.33729773915314   -1.28628489451063   -1.59174154115575
N         3.76699524497892   -3.02857900171026   -0.24778130343090
C         0.66349909091377    0.39875425375996    2.26066367138372
N        -0.51694592140693    0.88478816554094    2.50756041249215
O         1.61547154434251    1.17551439166044    2.75514342626683
C         2.11329043246772    2.45094463473300    2.24588952681536
O         3.32410013203934    2.33927238153233    1.45790820692576
C         3.52058140073197    1.57250064308556    0.23261176330409
H         1.12101804415587    1.17204621544051   -1.20930630550120
H         1.20794579405831    2.22563651437610    0.15622979304378
H         0.29619148435429    0.66284011906738    0.26273479872548
H         3.72515309016358    0.40765468903603    2.33457597103301
H         4.17532269821954   -0.85256711932795    1.23357311225272
H         2.52669340624002   -1.08785294420460    3.60896246919718
H         2.63786575983063   -2.33630128385611    2.48618813764251
H         0.18949023982234   -3.06870819634114    2.39329874789101
H        -1.10936786647157   -1.85259211617986    2.27257205988798
H        -0.17221876718574   -1.90831409569971    3.74769207987570
H         0.19566989634065   -1.40777185488482   -0.15714058513396
H         1.37109812618291   -2.74401835421683    0.26059909295637
H         1.87141505983591   -0.68781911431200   -1.38839284708060
H         4.26928975987208   -0.30685601995602   -1.79129006645403
H         5.18678014055044   -1.78453322469974   -1.83280737876149
H         3.08181534482168   -3.52784465745533    0.31559821496945
H        -1.24190865854088    0.20385377827713    2.28275802489997
H         2.49520985616145    2.95877699828288    3.13767452256420
H         1.30231576870235    3.02849683728814    1.79182091814421
H         4.59969341013578    1.43242428433409    0.32529011613198
H         3.25255999571771    2.16806862664171   -0.64695526327696
