38
 energy: -53.137523784313 gnorm: 0.147274485707 xtb: 6.4.1 (79825abcba525fcdf90b791dcacef51065a7a4e7)
C         1.26797567044654    1.26273569402069    0.00234810067700
C         2.61876247633469    0.37160511795508    0.30925233366628
C         3.33370948033935   -0.41684120379473    1.65686824708102
C         2.41274017555531   -1.39631875576368    2.46338020594487
C         1.01636407513825   -1.10991203008138    1.96947608424740
C        -0.01539880565175   -2.01968152520796    2.62267895535972
C         1.04446117486962   -1.47672861452910    0.31009496036798
C         2.26764901584536   -0.87334538752297   -0.50325860198612
C         3.34188209993869   -1.88381549920049   -0.87177273594868
N         4.55367460014514   -1.28981682368574   -1.11370335543714
N         3.27614174248952   -3.17194688675151   -1.03708120868316
C         0.70054642445090    0.42535700691865    2.45767382256055
N        -0.52660608166971    0.81278360436117    2.64377790115821
O         1.74391546794575    1.13411219692065    2.86161093165443
C         2.20995855400352    2.42675139327898    2.36585573068547
O         3.37367838892992    2.32610513535227    1.50849241940798
C         3.50632473325342    1.59329188405068    0.25418590352579
H         1.17982450322875    1.21716293316031   -1.08776705665869
H         1.19358917780926    2.32293344878835    0.29077765052325
H         0.34800350422437    0.78610265070061    0.32328301208425
H         3.87929379488814    0.27331594375825    2.30553310694185
H         4.14791252488270   -0.98413137832510    1.17777066329263
H         2.46583689803923   -1.15458074960818    3.52905869360112
H         2.64529200888829   -2.44881549507580    2.25691957084342
H         0.23052597555731   -3.08002530492653    2.59666676855656
H        -0.98751393551368   -1.83269809762532    2.13425808592086
H        -0.14709245134802   -1.90014661662412    3.70368953939341
H         0.03998034545181   -1.23779641587718   -0.05589562109018
H         1.05647556429380   -2.57401401106192    0.42810185058470
H         1.81624756455122   -0.59572164979350   -1.47133899005358
H         4.60082500509158   -0.28911695223234   -1.10359267459205
H         5.27412605239298   -1.77987612343271   -1.63213953544806
H         2.38243619410884   -3.59051412921335   -0.78762974964992
H        -1.24124514130675    0.14558184808992    2.35410300147349
H         2.53602174307265    3.06483392650848    3.19384733682911
H         1.31894237401980    2.92251695769824    1.96870157452612
H         4.58733984466799    1.44409078307798    0.21130527654473
H         3.20044088571641    2.20576430791668   -0.60108449263036
