38
 energy: -53.131321530268 gnorm: 0.144707623679 xtb: 6.4.1 (79825abcba525fcdf90b791dcacef51065a7a4e7)
C         1.21404584764376    1.16069061904098   -0.00427186505490
C         2.56698491247513    0.31608980428404    0.40698751559127
C         3.25392082174989   -0.50590544901644    1.74911581018774
C         2.26557555189799   -1.44874658155473    2.51869135265048
C         0.92865268973421   -1.07178002045108    1.93015946752180
C        -0.09697353037685   -1.94721406180777    2.63768703028851
C         1.08592769267663   -1.65156838726337    0.34019105113443
C         2.20282238910607   -0.87422157052268   -0.47839432217540
C         3.40483038908649   -1.69308056037283   -0.92052100652136
N         4.19527221435288   -1.14138881067554   -1.89553067987926
N         3.86764751655779   -2.74868880339898   -0.31850545078260
C         0.66427221721697    0.47150476192855    2.42362054668674
N        -0.55179643254618    0.92942650360996    2.46968646156926
O         1.67182750036346    1.15867409023175    2.94009775890297
C         2.32597198825244    2.32563132220343    2.35341960263187
O         3.42797388958661    2.30802106735130    1.41282030026438
C         3.62807065419807    1.38657024936451    0.29981318770520
H         1.42925821201594    1.54580347122582   -1.00605542046108
H         0.85881892439596    1.93318717445090    0.69559036893545
H         0.32307348074424    0.54744000347787   -0.08562904462413
H         3.67610771626844    0.18682688624813    2.48166299665458
H         4.09734066960343   -1.05188864760118    1.29654035157744
H         2.29796858350363   -1.28448802213857    3.59984674397653
H         2.43687073963380   -2.52205919105965    2.36665932605045
H         0.26296436044868   -2.95236088196776    2.85125000718711
H        -1.05187342950414   -2.10224854235158    2.10603295018964
H        -0.34231473899224   -1.48242653300312    3.59893410473776
H         0.16690008004195   -1.55890811835879   -0.24872469549987
H         1.33050632287562   -2.71157093751861    0.52641967079243
H         1.77555936141422   -0.52194309704189   -1.43304821096060
H         3.76481258383499   -0.56388018081860   -2.59188828190533
H         5.03247741996362   -1.63345924697932   -2.18697298966074
H         3.26219579280714   -3.06455228213477    0.43634066194548
H        -1.27596170088559    0.22237175693393    2.34544088357509
H         2.73704473137533    2.69869565458169    3.29728338074848
H         1.58417229939341    3.06741979106716    2.04211937186264
H         4.65157345555371    1.07319728591009    0.51645299476273
H         3.63621126726649    1.96004594277857   -0.63358609044728
