38
 energy: -53.124378403691 gnorm: 0.146883819619 xtb: 6.4.1 (79825abcba525fcdf90b791dcacef51065a7a4e7)
C         1.26781753021020    1.28061304667993    0.02919024616012
C         2.61702941827841    0.39849062065828    0.36744488822364
C         3.31021017651884   -0.41621594378547    1.71080601411180
C         2.34640792017866   -1.33699780112109    2.53619576670881
C         0.94843341455486   -1.13916313506891    2.00481548579600
C         0.00846660191480   -2.11235232151296    2.70356746178267
C         1.09888522406179   -1.51540088487180    0.35414927637974
C         2.29040202816923   -0.84658160611912   -0.45503072820406
C         3.44495111264539   -1.77401793128174   -0.79811598409624
N         4.09517276505047   -1.39252264433464   -1.94331424492612
N         3.82892189514166   -2.89723886442113   -0.26719948768919
C         0.53970215648828    0.41501098284499    2.34039013978244
N        -0.64788007522036    0.94441364590408    2.34470159054428
O         1.63821502056221    1.06118808597010    2.70072703998903
C         2.28079247579550    2.35280862501772    2.47117085154031
O         3.42208515486709    2.29948714448167    1.58007422318574
C         3.57666076046918    1.56509389472430    0.32920729174319
H         1.47470368916828    1.68688958752325   -0.96596604813316
H         1.02148714427978    2.21638327010715    0.55492750051475
H         0.38203640023992    0.68545140961562   -0.16497842993166
H         3.93730227666475    0.18704133688979    2.37230535582751
H         4.07069626313585   -1.02398527807574    1.19451483280692
H         2.36735429036120   -1.16884193404345    3.61703433301264
H         2.69752405459290   -2.36756990534492    2.39801354858502
H         0.23573232744766   -3.13756286079481    2.41585546117961
H        -1.04691041812862   -1.99337827255021    2.40265205084902
H        -0.10101724030507   -1.92995080953130    3.77825749206724
H         0.12154623698941   -1.19196531493801   -0.02030682904532
H         1.02888848379522   -2.61647573719202    0.38312897933533
H         1.88073269135114   -0.62848011803957   -1.45634018051824
H         3.91991485901088   -0.49725992699982   -2.35745787774535
H         4.79823025091190   -2.00442563887918   -2.34239992536224
H         3.20138906532073   -3.18478521810638    0.48090065119102
H        -1.46445044537471    0.36733609873304    2.14476900285649
H         2.79440133509054    2.54215371270643    3.41953312522688
H         1.43327394089806    3.00274739877539    2.23301823601276
H         4.61537861705343    1.26389614001806    0.17742284092618
H         3.40832716458194    2.13809683603417   -0.58921868457612
