38
 energy: -53.121995418304 gnorm: 0.157976251979 xtb: 6.4.1 (79825abcba525fcdf90b791dcacef51065a7a4e7)
C         1.20177241289613    1.21296110677466   -0.18920604918556
C         2.51099669788153    0.40835732913174    0.40364588551096
C         3.24009851610646   -0.35087864789267    1.76042026534273
C         2.39383731683087   -1.27518401513776    2.70250510008668
C         1.03336012225316   -1.19109717735607    2.05607837917835
C         0.03824081971094   -2.04952628250850    2.82531579607416
C         1.19463650495187   -1.58383185734382    0.41028404740265
C         2.30475008971948   -0.84191396399726   -0.44937258533572
C         3.48317569958931   -1.76084894211671   -0.72812129928258
N         4.20411554362049   -1.36301821414473   -1.82437965178994
N         3.85675132727122   -2.85472514933559   -0.13246429835763
C         0.59300057051512    0.38931544682247    2.11530899271951
N        -0.60974349081898    0.83609579261140    1.90452137384060
O         1.53292692102643    1.06405355899247    2.75981269646234
C         2.15724075608559    2.33652380098837    2.40634813227087
O         3.37419668180791    2.25899602689730    1.62375430354844
C         3.49176654004728    1.55666021427120    0.35064908351103
H         1.52672604562728    1.57594994598463   -1.16943193814525
H         0.76065525445984    2.10871603400252    0.27531842748305
H         0.26203327374125    0.69862875975940   -0.35914616077238
H         3.77199695989593    0.32976485437841    2.43016178058113
H         4.12159017253839   -0.77082070130301    1.24963620067334
H         2.59137205416894   -0.91770761432415    3.71745229208860
H         2.73823607799152   -2.31260686925695    2.60453038047161
H         0.23927405076576   -3.10939779368167    2.67786213721531
H        -1.00066222336804   -1.85754853052459    2.50539302405463
H         0.20114296563854   -1.72088714016828    3.85763110952189
H         0.17408499158102   -1.53433405391863    0.01525996803279
H         1.38912616096609   -2.66633645973164    0.50227741856746
H         1.75485206547307   -0.64994302415260   -1.38680374065772
H         3.77327411598525   -0.67335035481520   -2.40958007004584
H         4.92580661325023   -1.97412715692657   -2.19001929234081
H         3.26019530553739   -3.07916825899703    0.66118573890291
H        -1.22857640968093    0.12758164796531    1.51103408751800
H         2.51088046425201    2.76296167276090    3.35087252530841
H         1.39419389788355    2.98997651391373    1.97254656647223
H         4.51045830010423    1.17040382813026    0.42658661641627
H         3.36097196641069    2.18747356419607   -0.53543338857854
