38
 energy: -53.132390181844 gnorm: 0.156721003918 xtb: 6.4.1 (79825abcba525fcdf90b791dcacef51065a7a4e7)
C         1.07277780453895    0.99055469826434   -0.06015721799066
C         2.51657809465765    0.32268279756017    0.36682845110358
C         3.33516763984196   -0.34179026560391    1.72228121271252
C         2.42639377737647   -1.35241292031137    2.50381444596631
C         1.03473713810471   -1.08670204115469    1.98561968616198
C         0.02781070627645   -1.99651455222519    2.67643768282042
C         1.10678033444093   -1.58528322986595    0.36231561329557
C         2.29112240741390   -0.93419935365195   -0.47148741006738
C         3.49366415747472   -1.84779367233893   -0.64488870939692
N         4.44873265767565   -1.25039482739674   -1.42640307413918
N         3.72895486165589   -3.09541561536737   -0.36380343077571
C         0.63602122654557    0.47323485159721    2.30616811124697
N        -0.54189061445225    1.00610117201651    2.44478457055794
O         1.59526217908377    1.23325215262148    2.81247687106704
C         2.09209212485277    2.46415474790538    2.20262092203789
O         3.28593943002518    2.32106981884671    1.39410333136169
C         3.45546278393938    1.49535585492558    0.20357678902392
H         1.25519491139238    1.24421772020420   -1.10924140634842
H         0.91165767418135    2.01451360801992    0.31172003865880
H         0.10968436640375    0.50186167214512    0.04062578412507
H         3.72928392803452    0.47583477426434    2.33130246291247
H         4.26885041020321   -0.78815904011045    1.34377013703094
H         2.40361738179485   -1.07271779176856    3.56125429315522
H         2.68398118397669   -2.39921879980965    2.29814016866725
H         0.52740450003825   -2.96363958766136    2.65277813208919
H        -0.98158119900903   -1.95175645606441    2.23185893675084
H         0.02410570462277   -1.75404510148185    3.74480584571342
H         0.12157795049498   -1.51930874542304   -0.11207142070831
H         1.33720914910009   -2.65392631793830    0.51400519282270
H         1.91701476285790   -0.77216354852566   -1.49706320688085
H         4.43532634593127   -0.34132655795521   -1.84728401600762
H         5.22878815403958   -1.84862229475119   -1.67464047904691
H         2.96350598984065   -3.61282946241111    0.06340273588970
H        -1.32174895766302    0.38605958007030    2.22764843357023
H         2.45510345200976    3.03489784390180    3.06373167225814
H         1.27687859061656    2.99222561093342    1.69864393073022
H         4.52315276162565    1.27020460176251    0.24872573122984
H         3.08885995246700    2.11963695986909   -0.61864600611844
