38
 energy: -53.126288970040 gnorm: 0.153123860773 xtb: 6.4.1 (79825abcba525fcdf90b791dcacef51065a7a4e7)
C         1.22246671645617    1.21736560082344   -0.14987384332115
C         2.55530911011424    0.37178124384045    0.32070785774234
C         3.29446678428580   -0.35215201866024    1.69126688025213
C         2.43038611073255   -1.32975103483696    2.56056948425619
C         1.01427264129465   -1.16429765699602    2.06753388427150
C        -0.09747125246211   -1.95968674800528    2.73855612799729
C         1.17294257521769   -1.69620401305820    0.46105045177242
C         2.29565366545355   -0.95777188148629   -0.38514195839930
C         3.47633320376454   -1.82911168752854   -0.78212053170178
N         4.43905803485568   -1.06267403449094   -1.38671968180985
N         3.70090244602392   -3.08619344446218   -0.53667143102625
C         0.60301739249226    0.39357090846340    2.38224558563430
N        -0.58946630102720    0.90370003837656    2.29065816080793
O         1.66207864768328    1.09606506792792    2.75508505947071
C         2.09528604944762    2.39919611110064    2.25702251698926
O         3.25706443127012    2.38508472595439    1.39127588809360
C         3.53331033311310    1.52140547994279    0.24862917802940
H         1.29863924196529    1.14700482133049   -1.23957364935121
H         1.18543261417497    2.29587155722796    0.06966569556435
H         0.26578819898049    0.74259452788414    0.03956136681805
H         3.59126685101736    0.44640423845635    2.37607551150642
H         4.15398628597480   -0.81898954869532    1.18375512665591
H         2.47512642141667   -1.14143348310557    3.63735263829752
H         2.76530936578090   -2.37421292583103    2.52340103090748
H         0.11097353849948   -3.02788589864031    2.70715703739933
H        -1.09640543850772   -1.80433664797508    2.29524765432160
H        -0.06928824964447   -1.77080676185520    3.81732661425474
H         0.23661706950936   -1.68646379453982   -0.10747316374859
H         1.44068946367498   -2.72742647466339    0.74914253603545
H         1.80842625517844   -0.85118049232280   -1.36965481826753
H         4.16388197549201   -0.22078102600795   -1.85492894801563
H         4.95061265469355   -1.75731550862300   -1.91941996282263
H         2.98393666779375   -3.52759071599335    0.03539735351802
H        -1.36010373525230    0.24992832688934    2.15471992103508
H         2.62895106682517    2.77668921023672    3.13550828275443
H         1.16187052659361    2.93172439187454    2.05068822975906
H         4.59654946598791    1.28739469005255    0.33497083826297
H         3.49016545741732    2.11496595585544   -0.67115303506938
