38
 energy: -53.127892619110 gnorm: 0.145775415294 xtb: 6.4.1 (79825abcba525fcdf90b791dcacef51065a7a4e7)
C         1.16134015582126    1.10630108726700   -0.14408961179576
C         2.54291101392314    0.32416797152383    0.29461150955173
C         3.27318185940602   -0.36053015357202    1.68987436923958
C         2.41000219847484   -1.26219426389933    2.63852866737989
C         0.99816802136185   -1.12827495063831    2.12411038777874
C         0.08675456077878   -2.16784182798297    2.76247967975877
C         1.15631838419272   -1.60686532111600    0.50089467243813
C         2.23085227914997   -0.95928763734308   -0.47266779064931
C         3.42453313011855   -1.84251393906357   -0.79803923901397
N         4.56259331938202   -1.18528036252471   -1.18876798751782
N         3.53874935987030   -3.13636576423591   -0.73612576518940
C         0.62421483914608    0.44049411143796    2.43111437421335
N        -0.55749489121583    0.97567792325265    2.34292279806373
O         1.66154360584297    1.19687051965198    2.75663215399044
C         2.04287741556578    2.48694749775240    2.18727164486748
O         3.23648871313610    2.35495549754394    1.37652164516054
C         3.40827818890220    1.55640510681946    0.16792708629114
H         1.33021108271368    1.19023145224995   -1.22234601340925
H         0.98689228765751    2.11931491194387    0.25102451428811
H         0.17976149465947    0.64623164583433   -0.10712338133715
H         3.81468529266199    0.42825163961937    2.21840303551231
H         4.11233336287683   -0.88321131893301    1.20314201015849
H         2.50868006206831   -0.83933618176459    3.64271036471195
H         2.84125760533232   -2.26995403111901    2.58472574131733
H         0.42489666174628   -3.12976529188693    2.38057951664947
H        -0.98019260746782   -1.96116359677605    2.56900251169626
H         0.27556449734282   -2.05660315527560    3.83588196363264
H         0.13364099787223   -1.50813977384207    0.12088984453169
H         1.22118602362567   -2.70751010015282    0.55067884135745
H         1.84260838192057   -0.70927809917513   -1.47505481894973
H         4.82458096149019   -0.29489567452040   -0.81153702144428
H         5.23528827752495   -1.92867201387797   -1.33988001115692
H         2.67593975528699   -3.65168963431896   -0.57446231197376
H        -1.22395278437468    0.25341583868426    2.07098516287189
H         2.37725240780584    3.17102353271123    2.97420872716829
H         1.26056362022340    2.99748069171467    1.61738943503937
H         4.48219205857627    1.36332439155172    0.12185934305518
H         3.27700838677073    2.20806019741334   -0.70287066752165
