38
 energy: -53.120624931298 gnorm: 0.157953223103 xtb: 6.4.1 (79825abcba525fcdf90b791dcacef51065a7a4e7)
C         1.23111276391427    1.17740159425313   -0.07423052195441
C         2.58342164368526    0.31668237977132    0.30438807363458
C         3.33862702046681   -0.38017996862820    1.68021989117425
C         2.39290278808731   -1.36753553388624    2.44752487853570
C         0.96913261065198   -1.11237054448308    2.01903261755526
C         0.06008935168149   -2.00570756163545    2.85238637395459
C         1.10276752659472   -1.60198437512882    0.39690143907267
C         2.30030889979665   -0.98468090383899   -0.44371435697584
C         3.46203681808488   -1.88241746349412   -0.83777850687127
N         4.47879080119435   -1.18932787427716   -1.44246361326741
N         3.60599127703167   -3.15292192562622   -0.60107893166618
C         0.60307431554819    0.43744914989330    2.41801765306143
N        -0.60858493644010    0.90814420692808    2.44908830932394
O         1.58584546027465    1.21220302029410    2.85164812413310
C         2.10203329934223    2.43323368186816    2.23803610666039
O         3.23278527476932    2.40854665239229    1.33236735288508
C         3.44825969229502    1.54887640342799    0.17373324522049
H         1.34140521357963    1.08345851857893   -1.15922307558120
H         1.10379496256281    2.25755990512796    0.09837433296035
H         0.28874946448717    0.64839596494465    0.01867544371874
H         3.77804638576879    0.34462646018208    2.37037313306879
H         4.21994816806493   -0.84088543806147    1.20555923244599
H         2.39898743024938   -1.32479625840680    3.54071447639329
H         2.67427074370563   -2.40679640886639    2.23486401429964
H         0.56213861934518   -2.94212643852030    3.09019045865928
H        -0.87896924379347   -2.17413595892549    2.29711490698344
H        -0.30925450291984   -1.51617991489126    3.76022088120678
H         0.13302464968386   -1.47452116196763   -0.09642534631163
H         1.28840512376029   -2.67844454715284    0.55462714616510
H         1.80079872874834   -0.70616352743200   -1.38760816299426
H         4.36464406623287   -0.20216957270321   -1.56980029647320
H         5.34589979587980   -1.71289491434460   -1.39792107469038
H         2.86585158562184   -3.57332210825957   -0.04287547488070
H        -1.24683171302504    0.13820138430886    2.25007116465557
H         2.68008440950041    2.86558312457469    3.06142392942111
H         1.23468447608526    3.03541949173665    1.95080272000877
H         4.53007726087718    1.41109747929988    0.23188058527878
H         3.27549435771003    2.26229759722899   -0.63950545729815
