38
 energy: -53.124449327557 gnorm: 0.154076549039 xtb: 6.4.1 (79825abcba525fcdf90b791dcacef51065a7a4e7)
C         1.09455176967855    1.09322524265395   -0.04794612970334
C         2.49720922010683    0.29912632531028    0.29100505058721
C         3.34673594135748   -0.31936320213458    1.64918049946992
C         2.46051704376186   -1.32862827887742    2.45789699154441
C         1.06652789011185   -1.07430411429651    1.94025833500126
C         0.07934455647973   -2.00202979753612    2.63573177145473
C         1.12575064968846   -1.60522360603216    0.32671975701411
C         2.31802825739568   -0.98388678173441   -0.51839473960245
C         3.48598765643749   -1.92237487870300   -0.77518294708690
N         4.70578942821347   -1.41243211843780   -1.13829165801955
N         3.48382323595479   -3.21728532429778   -0.65629885647649
C         0.71043878775033    0.48403159641622    2.31431609538024
N        -0.47780486572763    1.01132559601833    2.34030519421134
O         1.71856383912284    1.16552783470990    2.83715913979909
C         2.03019488859619    2.51249320650414    2.36550686687783
O         3.05788094425062    2.51600345567572    1.34408901398088
C         3.32570001004525    1.56269044150433    0.27293897906287
H         1.14989323186417    1.30151541983004   -1.12114279611273
H         1.01992382144395    2.02382054349790    0.53614915223116
H         0.14294821561263    0.58112674237580    0.04550365863418
H         3.55562764529644    0.48671398069727    2.35724057824359
H         4.31266192416822   -0.60801268344668    1.20426735313777
H         2.45906680966139   -1.05106382598400    3.51614225780852
H         2.75222845307349   -2.37543842268301    2.30444108561105
H         0.33797725966232   -3.04951103361753    2.48952386918820
H        -0.96420059916401   -1.79402324364074    2.34201020693920
H         0.18779239883090   -1.80040622467929    3.70708731520769
H         0.11438693499048   -1.41856795685442   -0.05053685385024
H         1.27208981372875   -2.69145848658701    0.45627226708732
H         1.97175789777767   -0.82867692521034   -1.55474631705313
H         4.84392701839075   -0.44395211209691   -0.92221272497106
H         5.38704408316902   -2.16334475645113   -1.13568438704213
H         2.54678578756408   -3.61445830567176   -0.63762744085113
H        -1.25305958614333    0.39788261488236    2.09041212572035
H         2.56076772473186    2.98898737152412    3.19645957890023
H         1.06474029525418    2.94404925288258    2.08429242291899
H         4.40259938195551    1.40386873292634    0.36101171317793
H         3.08847870229220    2.19601072119388   -0.58892314964706
