38
 energy: -53.121986841599 gnorm: 0.157457711292 xtb: 6.4.1 (79825abcba525fcdf90b791dcacef51065a7a4e7)
C         1.18352619784252    1.24314702735542   -0.09700696889822
C         2.52686574791186    0.37931961043228    0.30569631577887
C         3.34085679146157   -0.28230574296420    1.66530506201845
C         2.42947687281065   -1.34029769439559    2.37808969685801
C         1.00659194302328   -1.18871686365361    1.90032615812968
C        -0.02054099667852   -2.01906314563224    2.65822596330374
C         1.04007222324662   -1.53362628081310    0.23635317309123
C         2.32612535674057   -0.92290702730224   -0.46713324749100
C         3.56337569180168   -1.79704403317618   -0.59332882794299
N         4.62990970555980   -1.26274249633033   -1.26922302319254
N         3.61772145151871   -3.05454658128892   -0.26673269401595
C         0.57917715606997    0.33337844506295    2.34267361109843
N        -0.60155609162556    0.78733213448544    2.64339340526139
O         1.56991763661418    1.11577835428870    2.74317547437100
C         2.05443010755710    2.36826925982637    2.16837145654364
O         3.25168793177918    2.32336797620911    1.35350769717942
C         3.55289921686314    1.48353212736075    0.19945281646849
H         0.78509053146001    0.93623621165840   -1.06924835966617
H         1.54124019212004    2.27197858445356   -0.25915063319267
H         0.39084674261023    1.13962691038152    0.63611643417050
H         3.53122948386015    0.47179494620079    2.43331262872241
H         4.33434690060347   -0.56843488272934    1.28400892880387
H         2.44376460988047   -1.11262633142147    3.44808444801444
H         2.80654117809954   -2.36515649943508    2.26880721119289
H         0.35867851255188   -3.02848917691390    2.80901127617101
H        -0.93092305266067   -2.12994492641063    2.04386832312506
H        -0.19858320631538   -1.66308226172907    3.67890919953957
H         0.09009364393058   -1.08228141630022   -0.06999294833689
H         1.04036856047727   -2.63612447750110    0.18533516690376
H         1.93475908211449   -0.70380336793404   -1.47552001177962
H         4.36564025971688   -0.62709136895129   -1.99712062639532
H         5.44691678259971   -1.86108174164210   -1.31896303351476
H         2.71522371552393   -3.32739826214792    0.11691294291671
H        -1.42623200721450    0.20449473490997    2.50201126837062
H         2.42085088440959    2.91019488653602    3.04648822442700
H         1.15069169281778    2.79710540253332    1.72477119878242
H         4.62043141183221    1.29657876717564    0.33405164876911
H         3.45627830598637    2.19858922038523   -0.62488485753143
