38
 energy: -53.127877417833 gnorm: 0.147755766080 xtb: 6.4.1 (79825abcba525fcdf90b791dcacef51065a7a4e7)
C         1.18491648547819    1.18770494517261    0.02618100068310
C         2.57136626363894    0.38816028544248    0.41530083414526
C         3.29078966455659   -0.41797244553757    1.75000883441622
C         2.34383525645214   -1.35789266762535    2.57332504892248
C         0.96426888235466   -1.15382980812523    1.99800665750232
C        -0.17198686739058   -2.05537332654274    2.46172131582833
C         1.17443230159932   -1.60061701467259    0.37162968471310
C         2.28568835217151   -0.83003619019718   -0.46090800690766
C         3.42845573346468   -1.77091900946391   -0.80681473873492
N         4.13504438649268   -1.42326277761711   -1.92916652683506
N         3.91006067224937   -2.87079344385048   -0.30755121291348
C         0.66545040599118    0.41182601490603    2.39114548008129
N        -0.45173544607271    1.06716684948707    2.50543234839705
O         1.78653265170919    0.98371607023197    2.80374021476353
C         2.28282761266509    2.31306799500336    2.45675284793366
O         3.29910429108181    2.46341227451014    1.43497808084524
C         3.51426274118182    1.56396218561980    0.30688609512332
H         1.21971286079568    1.48477309377451   -1.02678541867910
H         1.11421577825335    2.11066062244392    0.62275326615888
H         0.19191090941309    0.79164085115373    0.20948460939114
H         3.81442616149992    0.32206994716708    2.36065382647427
H         4.06788877004640   -1.04956216948135    1.29012772957335
H         2.30030995816749   -1.12320444911066    3.64101140004950
H         2.62812031122735   -2.41237979677626    2.46518334212632
H         0.06299024853073   -3.11791193321652    2.42591605051283
H        -1.08208368755272   -1.80404791519900    1.88980796235300
H        -0.34293572772237   -1.93240072724564    3.53683522349532
H         0.25736926956558   -1.43137670916461   -0.20315075236526
H         1.32725911588991   -2.69364605319868    0.36557306364192
H         1.91807995652757   -0.58208275736108   -1.47155186281551
H         3.68412122063513   -0.81423696852513   -2.58451489354099
H         4.82718479790217   -2.05802795019514   -2.31126509125099
H         3.44842158782636   -3.24997048578971    0.51661399978941
H        -1.34210952097629    0.62678738936256    2.27504433034787
H         2.67411348476238    2.57567880770489    3.44516953851382
H         1.43247269029750    2.99635964277240    2.37053349897358
H         4.57255636324312    1.36536613491805    0.48928020583152
H         3.37747960213891    2.16036168344796   -0.60183435442102
