38
 energy: -53.134133482692 gnorm: 0.142051999968 xtb: 6.4.1 (79825abcba525fcdf90b791dcacef51065a7a4e7)
C         1.08716128661791    1.11865798230227   -0.10602137476266
C         2.49913248313271    0.38932003913608    0.32679774872733
C         3.28799288345884   -0.39782036409219    1.63331017280344
C         2.38689115012672   -1.33178667057839    2.51293785953030
C         0.97963090630807   -1.17215206307140    1.99334987368822
C        -0.09976764703626   -1.98356926326094    2.69718936298038
C         1.07346360028332   -1.56965680744604    0.34347868732552
C         2.25115541124496   -0.88727021205614   -0.47456430951420
C         3.45068915095369   -1.79421838325357   -0.69680976131182
N         4.48349342993980   -1.19057481167838   -1.36668711496930
N         3.71567853800094   -3.00442332525286   -0.30169487774470
C         0.63827643411067    0.39795442639841    2.33005676807008
N        -0.50896208662405    1.00762919047908    2.38276156594628
O         1.76229605675664    0.98822563386662    2.70725413685615
C         2.19083124620405    2.33986894689272    2.35610827538243
O         3.30375930833245    2.39183335339686    1.42975186352890
C         3.47839816494565    1.53817792224156    0.25985066097801
H         1.26725220652526    1.16669830792303   -1.18465845487200
H         1.02877308524940    2.17683301584834    0.19331230377393
H         0.12846245364572    0.65205063499855    0.09323018316173
H         3.96173780051730    0.17579569603379    2.27500918884717
H         3.94412941583586   -1.00002772901666    0.98437999297570
H         2.46744375972786   -1.05741711317464    3.56894911721036
H         2.70589189780575   -2.37300728072097    2.37672519531163
H         0.17992404993280   -3.02178961766809    2.86852414172677
H        -0.95989373889968   -2.06003161553794    2.00953960937987
H        -0.19357106600016   -1.57029142010841    3.70744578362054
H         0.11652938108807   -1.43352811967642   -0.17204561581111
H         1.20011693271793   -2.65514292895158    0.49769936825067
H         1.86737478510284   -0.59377335038612   -1.46682932398727
H         4.35838037349383   -0.43174787328450   -2.00875721638491
H         5.27769755276471   -1.80036946942637   -1.52598173091192
H         3.00750521814406   -3.45833306931611    0.27153340520595
H        -1.33818413945384    0.56300257806190    1.98972636557179
H         2.59977135398391    2.82269223819995    3.24980077492017
H         1.33485504718666    2.92644351783319    2.00874712440798
H         4.50107590316724    1.16572916703778    0.34988157810929
H         3.36764058037311    2.19275271898158   -0.61160756082975
