38
 energy: -53.133303325472 gnorm: 0.156447296764 xtb: 6.4.1 (79825abcba525fcdf90b791dcacef51065a7a4e7)
C         1.12895389587531    1.17362687406546    0.09504785353961
C         2.53219236495101    0.33644328158352    0.30235034020452
C         3.32544676200429   -0.37121739583168    1.65099013201110
C         2.47921483378834   -1.47050068148537    2.38139416290625
C         1.05232675169736   -1.17559616107975    1.99042357783651
C        -0.01302839783464   -2.04038448179659    2.65076341121801
C         1.01359276070848   -1.56106781765226    0.33549130786718
C         2.18336640579351   -0.90573402947571   -0.51537358068073
C         3.37632140890388   -1.81251938152880   -0.77116238318422
N         4.39700752958580   -1.16266974157377   -1.41591132473080
N         3.45516363179705   -3.10016357082529   -0.60779929946238
C         0.77224103975952    0.39401340613986    2.38158413658201
N        -0.35148424389500    1.03741681106825    2.49952854128519
O         1.84977120129885    1.01223922872233    2.84076127305478
C         2.20480230390208    2.35796980367735    2.39708615887313
O         3.25025688286509    2.38553159560087    1.39423500444944
C         3.45515307604091    1.53069762117701    0.23011664145775
H         1.09883765082914    1.34805693140850   -0.98516773802517
H         1.02642230648161    2.19650434580977    0.48995693401549
H         0.18953269452994    0.68680205753896    0.33382904914695
H         3.78782940512485    0.39653881279740    2.27668808015390
H         4.14530137372607   -0.87272777805653    1.11191222716757
H         2.55944069230743   -1.28156540488028    3.45600778298649
H         2.77271978342765   -2.48152785104354    2.07133831201034
H         0.35047886785768   -3.04570906998187    2.85732936829108
H        -0.94822435340975   -1.91221118378387    2.07848227600669
H        -0.27452347460893   -1.67907572190813    3.65140919887724
H         0.03897872396328   -1.22460581916356   -0.03456306292704
H         0.99350917017953   -2.66441347968570    0.35366264766639
H         1.69213357356009   -0.74545888696802   -1.49057612950241
H         4.54601912927484   -0.21741594959461   -1.11923569289851
H         5.19747639088952   -1.69610569943828   -1.73634878517618
H         2.63551911518380   -3.62150735573964   -0.30363208542911
H        -1.21622449280167    0.57236502883776    2.22433797575906
H         2.78507077648554    2.84844916903957    3.18560066152167
H         1.29517669974338    2.92235436685951    2.17020277190480
H         4.53838714027583    1.40851584405872    0.16401856158244
H         3.27585985729901    2.08749968482112   -0.69616638718566
