38
 energy: -53.123122718745 gnorm: 0.152206669582 xtb: 6.4.1 (79825abcba525fcdf90b791dcacef51065a7a4e7)
C         1.22964375593071    1.20146496593401    0.07508572641397
C         2.63686549654463    0.39525628545564    0.36263300347055
C         3.32814366504239   -0.47146937320622    1.67403934587176
C         2.35021345003005   -1.35146120770929    2.52685183063433
C         0.99267271668470   -1.08712833487845    1.92431754188499
C        -0.04593221127533   -2.04219101111093    2.49706900107931
C         1.11670536690210   -1.52442785393564    0.28655243432047
C         2.33402723652760   -0.84590537612548   -0.47472184677513
C         3.40188209360445   -1.86645514748484   -0.83387834237902
N         4.10105505270407   -1.37976109041078   -1.90816507263912
N         3.61192692549029   -3.06791139681563   -0.38297347868201
C         0.62599647554125    0.42227268977466    2.45571743660569
N        -0.56374669784965    0.94588267488448    2.48703992115097
O         1.66760149015528    1.12015902402786    2.88248633902893
C         2.22806052089957    2.40632240107703    2.47560196717557
O         3.40113037477620    2.23903691396296    1.64171465174180
C         3.52626220685478    1.61637306660231    0.32850221301757
H         1.39815969821574    1.72018180059027   -0.87398422955161
H         1.03728505228242    1.94966726023306    0.85990143452741
H         0.29439757935338    0.65754250399593   -0.00230937274744
H         3.98600257897832    0.17863179653929    2.25656432337057
H         3.99164083002865   -1.10014736756518    1.05856007864855
H         2.36959492740809   -1.07582833670959    3.58542541540902
H         2.62790528631928   -2.41311165275259    2.54238572662321
H         0.18551382445668   -3.04871687712039    2.15236191463245
H        -1.00467371862288   -1.83954577280005    1.98886116743645
H        -0.19496649064921   -1.90913917718578    3.57424200584408
H         0.16628585618653   -1.41194619501362   -0.24642978818940
H         1.30636167310905   -2.61062628216963    0.33460102062757
H         1.93901582769366   -0.59642037794244   -1.47459237294873
H         4.17332664709745   -0.41336595937729   -2.16229669554445
H         4.93373923427321   -1.94472875154942   -2.03239505309085
H         3.00187091425070   -3.31150636141420    0.39460438202040
H        -1.22646996166887    0.28405453943079    2.08385248175195
H         2.82735579090868    2.70862998483515    3.34075624856204
H         1.67002536306741    3.26200254930141    2.08338648578601
H         4.61081684456375    1.50448663838594    0.26592386100853
H         3.10993622773631    2.36488609804915   -0.35456130303963
