38
 energy: -53.129679957927 gnorm: 0.139402353416 xtb: 6.4.1 (79825abcba525fcdf90b791dcacef51065a7a4e7)
C         1.17769017622905    1.28621104559254    0.01224463073762
C         2.55618370681767    0.44150380057201    0.32713214533228
C         3.19448244356919   -0.40883610525114    1.67559876672311
C         2.34848767795155   -1.47766882847009    2.45013846264211
C         0.95819956964832   -1.14697859929371    1.96683809629832
C        -0.11473686902694   -2.04653983856628    2.56557519892869
C         1.06862521617172   -1.43513223260348    0.29541259572834
C         2.29184024495778   -0.81286877582922   -0.50354735273950
C         3.45571506205944   -1.75243200999897   -0.77455576579504
N         4.43041233643000   -1.32965031711298   -1.64117376951491
N         3.62064562458206   -2.97691695066039   -0.36913537467268
C         0.66324002696347    0.38886252645298    2.46615735666623
N        -0.51244304360856    0.93444869001096    2.56980298348237
O         1.74770947658129    1.00073230443562    2.91744380628710
C         2.24689882952569    2.28029955411947    2.42004746826447
O         3.35699349623495    2.28440524235269    1.48885557280427
C         3.54363624048733    1.58070563892696    0.22478812543157
H         1.00646724629032    1.30508815163445   -1.06873867947329
H         1.25901476665098    2.33403440806546    0.34117737314674
H         0.22681336474171    1.00262304278815    0.45035213863472
H         3.76604393301691    0.17137418066169    2.40458348415853
H         4.01566759024203   -0.97572299176585    1.20808037202923
H         2.54230687074370   -1.31300789906272    3.51420991445139
H         2.66523068789836   -2.44818095572388    2.04735339376594
H         0.07784041966766   -3.08192005289440    2.28919437362223
H        -1.15410755847085   -1.89152736981479    2.22763250079556
H        -0.17667381623005   -1.84175474377452    3.64002509124820
H         0.09645798036745   -1.27690172141108   -0.18403854926456
H         1.15838879938334   -2.53506154105546    0.28115673283713
H         1.91095484893250   -0.65602483899562   -1.52743413221614
H         4.55211234898105   -0.40482366515644   -2.00670130631209
H         5.05358359287671   -2.05797021181654   -1.97161620317971
H         2.87660261582764   -3.40424348392492    0.17851981442883
H        -1.28416655478711    0.34781554670477    2.25344386225423
H         2.63972591393420    2.68301343715064    3.35948615185340
H         1.45112529387928    2.96555161971286    2.11247822902021
H         4.61876171420768    1.42437770930152    0.11361176970478
H         3.39734613243740    2.31687277811927   -0.57322941263884
