38
 energy: -53.130831449725 gnorm: 0.153259180724 xtb: 6.4.1 (79825abcba525fcdf90b791dcacef51065a7a4e7)
C         1.20614290206512    1.22379079289069    0.05910599430235
C         2.55621332361945    0.31109160959637    0.29831088501248
C         3.26067512826545   -0.45745350854641    1.66283917690790
C         2.28483525024739   -1.40357809740869    2.44425268735181
C         0.88983726512661   -1.07873225004145    1.97065782386626
C        -0.12853302677334   -2.02406473568207    2.59368075371534
C         1.02356725342474   -1.63142759737242    0.36892948369180
C         2.13803815874637   -0.91695260977666   -0.50815884959686
C         3.37187138987310   -1.76912377288115   -0.75773681721361
N         4.39103080632906   -1.01629129312192   -1.28153380504229
N         3.60842467286144   -3.04376715568906   -0.65645513971194
C         0.72326845762979    0.47955436924902    2.45966335649728
N        -0.48559542509045    0.95690208130871    2.49740747926769
O         1.75972848575980    1.17900255884130    2.89628776239591
C         2.33577580185565    2.39254039831278    2.32237064428595
O         3.48333392613731    2.18795995778853    1.46172985724396
C         3.55493301897733    1.44164517554535    0.21041735502295
H         1.16657628011593    1.41585626463910   -1.01780806828852
H         1.04109294375064    2.23376974700975    0.46585562437828
H         0.23853837439226    0.76005798022977    0.21791537750398
H         3.77811713558860    0.25995037457330    2.30496897259273
H         4.05806571407785   -1.01961988565951    1.15057317517107
H         2.37603256238739   -1.27529596126858    3.52691325487213
H         2.59129954637373   -2.43958720772437    2.25132656258778
H         0.20202828641558   -3.05440501773356    2.47279783580093
H        -1.12009155841956   -1.98359064902201    2.11025641781706
H        -0.24233282899129   -1.83173393338454    3.66618910138569
H         0.06479532940017   -1.59045734502681   -0.15936709091237
H         1.34110002138480   -2.68759407408825    0.32661488095554
H         1.73296185319140   -0.65574146082390   -1.50098299221166
H         4.25634823554267   -0.02945259965266   -1.38986489010197
H         5.25659646854815   -1.48931863455862   -1.51610940359149
H         2.86514828343923   -3.67633337252876   -0.36743201487375
H        -1.22514201249877    0.32107822085799    2.19978763051660
H         2.87716823538006    2.91139228587848    3.12032025456785
H         1.49950472311079    3.00089876924584    1.96463398068294
H         4.61252329016771    1.17551952919077    0.15233671360027
H         3.38380988580500    2.03950667682218   -0.69149913406380
