38
 energy: -53.129713185431 gnorm: 0.147349972492 xtb: 6.4.1 (79825abcba525fcdf90b791dcacef51065a7a4e7)
C         1.17010570895296    1.20498621048909    0.03014500496486
C         2.55869034589099    0.36533502968835    0.31254103452235
C         3.28420624889328   -0.36306088969338    1.68801606280165
C         2.37288076452248   -1.35175574167823    2.49423603115121
C         0.96723819569406   -1.09987709036954    2.00785920647869
C         0.02076202133156   -2.08298634357572    2.68355751159540
C         1.15519029851028   -1.59127733565113    0.39166325407916
C         2.34924864903549   -0.94981081726257   -0.43571162727756
C         3.50464119306730   -1.88761806694671   -0.74621906634730
N         4.41300336602559   -1.34119194416252   -1.61576065393154
N         3.82129473987499   -3.04427474245105   -0.24341987219593
C         0.59338171478944    0.46198978996300    2.34834706464595
N        -0.59908191343520    0.97976905425608    2.32442052989743
O         1.61408436764414    1.17933496277629    2.79298181156408
C         2.11756495784238    2.48139570701276    2.36282999879482
O         3.24997152945058    2.36069168528721    1.46698890245624
C         3.42416167170324    1.60147891280076    0.23364024303201
H         1.17175038088588    1.18001332405035   -1.06419142127561
H         1.22760158655137    2.21294859004148    0.46997486898737
H         0.24676927734545    0.68371656502099    0.25873821188900
H         3.75706920397151    0.32233787972361    2.39609401834329
H         4.08574305502997   -0.87666843236125    1.13301580948462
H         2.51356790869923   -1.14348033516476    3.55901565383068
H         2.64270943579051   -2.40004264976862    2.31328636694770
H         0.51515250232436   -3.05303423483702    2.69190657756672
H        -0.95942620388764   -2.11758566874010    2.17704048472565
H        -0.14911300216729   -1.93112401879133    3.75514325232144
H         0.25271535459650   -1.26759223704991   -0.13822954596838
H         1.14326126449027   -2.69172061572672    0.30807207672986
H         1.96749173952926   -0.59476034312838   -1.40844935102089
H         4.12464912511164   -0.80465261117981   -2.41118695140009
H         5.16003563664690   -1.95171762836314   -1.92750680804415
H         3.08047333968713   -3.38509598576618    0.36580809125222
H        -1.34907880668971    0.34711498835681    2.04687376818441
H         2.50738600120081    2.95766241724337    3.26850444542003
H         1.29959167857504    3.08677526205161    1.96051164585191
H         4.47579627197483    1.31262385092880    0.17601366072127
H         3.22586522338245    2.20122893897451   -0.66143141537678
