38
 energy: -53.129224748346 gnorm: 0.151279155864 xtb: 6.4.1 (79825abcba525fcdf90b791dcacef51065a7a4e7)
C         1.07410664289300    1.09406940617507    0.01855660869247
C         2.47750356954807    0.28838228144316    0.32559770087031
C         3.23251560886823   -0.38072935765706    1.71524222911615
C         2.31681937118311   -1.30368757475926    2.59141047968532
C         0.94605324630736   -1.11222302756149    1.99126230919515
C        -0.12419365528300   -1.94197216724524    2.68766525872082
C         1.11168262749405   -1.62824310782431    0.38030616985555
C         2.25151655594478   -0.97098011440275   -0.50884386074218
C         3.53420822166385   -1.73220781376174   -0.80221004788378
N         4.51283318898523   -1.01602630531781   -1.44188428190754
N         3.81956875632253   -2.89717979189221   -0.29987468157109
C         0.56196073983785    0.43990873048648    2.36340303096006
N        -0.62763070066898    0.92937586529372    2.55295896065989
O         1.64446670575315    1.10826627783855    2.73163809870037
C         2.26854171504895    2.29610941493896    2.15419155083693
O         3.47765196786671    2.17517368070716    1.36496895075696
C         3.51601178301744    1.37158481024324    0.14814167568706
H         1.26768111604674    1.23525782747315   -1.04952265736264
H         0.88416961704548    2.05934399217604    0.51344360261315
H         0.20598925382203    0.44396419174407    0.03475760178972
H         3.86007198282987    0.35179414784498    2.22937017298368
H         3.96099811473534   -1.02244102300350    1.19389913880499
H         2.36080964871142   -0.99926035403292    3.64132289201547
H         2.67177033623426   -2.33451834850793    2.46549997882450
H         0.13583430660836   -2.99768850065126    2.62993276497536
H        -1.16178739251466   -1.86043184758219    2.31986643871219
H        -0.15315199239183   -1.56542414957138    3.71605657504466
H         0.13754059325521   -1.61904758390814   -0.12067502518216
H         1.27130978778440   -2.69400835646263    0.61856822902311
H         1.79104220947348   -0.68753541369367   -1.47094589447258
H         4.39662866620523   -0.05234601823615   -1.68996174323322
H         5.40734791952019   -1.43108025735658   -1.67759192851611
H         2.98569745047944   -3.38948113448128    0.01386439955866
H        -1.46826241891487    0.49866696443601    2.16876258384458
H         2.73878042101086    2.76976258046702    3.02227269192363
H         1.56476211972328    2.99905326784259    1.69813348115405
H         4.54776956681654    1.01916946157768    0.08511230386918
H         3.31421674257791    2.01961679868939   -0.71180492598372
