38
 energy: -53.118750333043 gnorm: 0.154188242570 xtb: 6.4.1 (79825abcba525fcdf90b791dcacef51065a7a4e7)
C         1.04064449904184    1.03504040223208   -0.05147575594208
C         2.46066065357460    0.30453171142278    0.35205871998532
C         3.29910260254309   -0.38107511706327    1.68465912854641
C         2.40998179570725   -1.12437910956239    2.74058793100411
C         1.03553262876897   -1.11446832733388    2.11879412334795
C         0.02035798280156   -2.11303897351855    2.65839234626399
C         1.16822524345691   -1.62051001208788    0.50163487581761
C         2.28296766065133   -0.99078709021905   -0.43783424452533
C         3.53260168745152   -1.81251229061031   -0.70988524270680
N         4.59674055200275   -1.10287610092838   -1.20367758175519
N         3.64426223959222   -3.10341206689720   -0.81961608738941
C         0.60960831483898    0.45588856565770    2.33718942489486
N        -0.58748010731107    0.94231879128656    2.48211114029483
O         1.53356189376951    1.26721056385942    2.82931183334211
C         2.16409514066060    2.40280339548481    2.16092406657587
O         3.34376441539717    2.33147433941264    1.32262940841932
C         3.42289213081060    1.45371799012498    0.16022769079149
H         1.14485347470965    1.19421795750574   -1.12943751509647
H         0.90780792560466    2.08663716617285    0.24725979153478
H         0.10581455679317    0.51307446497100    0.12222397116042
H         3.88388325935580    0.36496545857010    2.22890197539954
H         3.99351937352924   -1.12426023988203    1.26070104778456
H         2.59766269099282   -0.68622682234835    3.72533439714296
H         2.72384779576009   -2.16024967721423    2.92201567593434
H         0.45338365939644   -3.11191074778444    2.64327605630092
H        -0.80774069326044   -1.96458146280014    1.94373261892997
H        -0.34775625225216   -1.81021882742038    3.64480380163649
H         0.21627832752753   -1.37853249985500    0.01659529071155
H         1.35171120723179   -2.70864472928937    0.48161121862286
H         1.71388521437746   -0.81365782297722   -1.36669819823120
H         4.57833599257779   -0.23090819092982   -1.69668757309549
H         5.24964052069007   -1.78802335160279   -1.56737989293356
H         2.85213440585308   -3.59387347835425   -0.40959745753894
H        -1.31447859896465    0.27350428289309    2.22924939227900
H         2.52624581883631    3.00481028735162    3.00084740602454
H         1.44969748027545    3.05895601820494    1.65444162322915
H         4.48163822407297    1.18588877203618    0.15602984856105
H         3.27685944589459    1.92662244428365   -0.81712111249679
