38
 energy: -53.128895138649 gnorm: 0.153830887629 xtb: 6.4.1 (79825abcba525fcdf90b791dcacef51065a7a4e7)
C         1.17701690771001    1.13059833718047   -0.16285803403311
C         2.56876173378368    0.38095620007246    0.29975616990814
C         3.36688593495005   -0.36423368336208    1.62510716961891
C         2.50815646687290   -1.34638859582013    2.49457695383223
C         1.08605230808465   -1.12977700804222    2.04011520859736
C        -0.00044208100444   -1.86852587180179    2.80996534339147
C         1.11031440065746   -1.61526628579891    0.41143442805174
C         2.30142306143756   -0.94973949914436   -0.40105439998464
C         3.46826688718631   -1.88071294916948   -0.68844467750322
N         4.52201769431827   -1.19881712139282   -1.24019936428878
N         3.46486061553380   -3.18105979271532   -0.69264574470211
C         0.64390376565601    0.41567478591900    2.37360023978651
N        -0.57063574216340    0.87089978785653    2.28248850485430
O         1.65392183078139    1.13543454128310    2.83828022308589
C         2.04803366091350    2.43105747102688    2.29062834879155
O         3.17968994527220    2.36302222241617    1.38831430137486
C         3.51935505156200    1.55308768771551    0.22361312634329
H         1.19332303943882    1.16322808690639   -1.25687264343741
H         1.03993814582289    2.18657666126300    0.11796829356093
H         0.24682701053853    0.64492960680676    0.11173201942243
H         3.81968686586339    0.38412067737016    2.28060873659225
H         4.11390444127843   -0.98376121843566    1.10316060006675
H         2.62961903924631   -1.09350850248395    3.55203884903838
H         2.79624403028892   -2.38746113359528    2.30059432843441
H         0.04162666713137   -2.95279844774415    2.72014460386212
H        -0.97889291655109   -1.62634162677713    2.35995831111902
H         0.07666805883579   -1.50043854563697    3.83893640598892
H         0.11442826989306   -1.56636863947939   -0.04226069987868
H         1.29742831830981   -2.69194257191249    0.56590699282015
H         1.87266926588389   -0.76433413542477   -1.40096083817620
H         4.81740074453784   -0.24194385723723   -1.21073715010858
H         5.30645593571880   -1.82801844531554   -1.36960891436923
H         2.55965212755311   -3.58233744425892   -0.45662028672944
H        -1.30840586539065    0.28144244910934    1.89776262282483
H         2.40914117402376    2.92611241095953    3.19812964519836
H         1.10152666983591    2.84369795423840    1.92830652703762
H         4.57928537470414    1.34857699284398    0.38919235512419
H         3.26031160102519    2.15173384188436   -0.65655397440418
