38
 energy: -53.131987725409 gnorm: 0.145113934757 xtb: 6.4.1 (79825abcba525fcdf90b791dcacef51065a7a4e7)
C         1.13421509578530    1.08480662412038   -0.15332224666783
C         2.52289908591399    0.36882579539440    0.36807696643613
C         3.26115086669831   -0.33299270425794    1.75057491869981
C         2.45001528434774   -1.34769535504971    2.62833335810821
C         1.03604306509623   -1.20817119258727    2.12133052094911
C        -0.18440024967753   -1.90608263015648    2.70641762205600
C         1.17980680213150   -1.68775869636126    0.49707149075814
C         2.27012187403026   -0.93816998705846   -0.38107067063416
C         3.48379055655518   -1.79574741067318   -0.70106840215993
N         4.29288125166949   -1.20975603558469   -1.64010635526389
N         3.86915660571988   -2.97162850977779   -0.30140877513164
C         0.67344420729472    0.37195573109874    2.37988386713133
N        -0.52799456552746    0.83859348966357    2.20832787767010
O         1.65736196905784    1.17232381928053    2.76124307210828
C         2.14117952070847    2.43690203897722    2.21292931067001
O         3.40314766516914    2.31363805684161    1.51172479153072
C         3.47331268160112    1.54003834358404    0.27701206464291
H         1.34605159331764    1.43511663431436   -1.16851028522361
H         0.85727375604851    1.99257231590128    0.40525557417624
H         0.23617153296867    0.47871044551665   -0.20520907395456
H         3.77988513199877    0.47285096638157    2.27619453233279
H         4.08662440966370   -0.83536459391685    1.22095698631132
H         2.59110126434535   -1.15634916501567    3.69623248174084
H         2.75717220997462   -2.38088209973893    2.42184967396446
H        -0.06711637650122   -2.98819246697241    2.73411887273644
H        -1.03764176317194   -1.69772464603366    2.03776864893832
H        -0.40916364615041   -1.42032130683225    3.66231147135541
H         0.16979109079593   -1.68527285836448    0.07294707296780
H         1.45557498065705   -2.75601068154534    0.52698505592334
H         1.80491660163142   -0.78448146313419   -1.37000026922640
H         3.91365086990210   -0.53945098727364   -2.28088797177292
H         5.01992316925241   -1.72154925488473   -2.12740732750200
H         3.47219592235965   -3.29122024101761    0.57973679523184
H        -1.16188102759300    0.08076334197121    1.95601825997008
H         2.54156929265451    3.00407378404571    3.05971197145735
H         1.35741622665545    2.99988232205857    1.69699031065627
H         4.52078325447367    1.23894747245223    0.20741977967191
H         3.15371811981056    2.24603311657477   -0.49732994790587
