38
 energy: -53.124228463263 gnorm: 0.143460282528 xtb: 6.4.1 (79825abcba525fcdf90b791dcacef51065a7a4e7)
C         1.14459956618679    1.10894027179126    0.03471162451298
C         2.55705926042680    0.35797304341506    0.42705678697511
C         3.28031799349956   -0.50880591284567    1.72106471068050
C         2.30131581537102   -1.39422305223042    2.56700412157560
C         0.94071488521757   -1.07883229372529    1.99680235443401
C        -0.17988256433537   -1.96519633338217    2.52359384285144
C         1.15164811822358   -1.61481282301621    0.39770212048338
C         2.26070253958373   -0.85731400720788   -0.44964529010399
C         3.41490177523403   -1.74179058807770   -0.89276437037472
N         4.05324857800195   -1.16681296117577   -1.96127735405818
N         3.83900835245151   -2.87207064914676   -0.40951315133400
C         0.62748868027542    0.49365963785156    2.34934631037552
N        -0.55103314536247    1.03652269448534    2.43315168104385
O         1.74133102871696    1.00263304763108    2.85374629480588
C         2.34362881065143    2.26689375164890    2.43809293063812
O         3.53798302117244    2.15936824085796    1.62482688898722
C         3.56773368375632    1.47756538905758    0.33558101585816
H         1.24729609961441    1.25343383271156   -1.04546132117067
H         0.86928316514079    2.10421726466620    0.41729340139717
H         0.31252151047779    0.45828947258959    0.28134233713626
H         3.80766780849236    0.07186198615400    2.48229542075167
H         4.10296672086400   -1.01026422308164    1.18621158789203
H         2.29985293444714   -0.98861615356585    3.58307895305997
H         2.50291476904480   -2.47293051878568    2.58127937851008
H         0.04802597520337   -3.02931811700399    2.48913982205879
H        -1.13417317051298   -1.73593113023431    2.01832909083196
H        -0.49128961882429   -1.67429329883500    3.53285929683173
H         0.24663302982055   -1.67346760435284   -0.21672991382822
H         1.43916880458209   -2.66389692983683    0.58440937277250
H         1.92874218512480   -0.42340933899103   -1.40857537228054
H         4.13861258948473   -0.16880291449861   -1.98163784994318
H         4.95288035846374   -1.55700798566845   -2.21894960638646
H         3.26800362409431   -3.13793577523786    0.39011395710905
H        -1.24702081490828    0.58453129980753    1.84062855597998
H         2.73712353319532    2.75514276803875    3.33576293008850
H         1.55533256263561    2.92617674821563    2.06211460199161
H         4.61207057518508    1.18692300025285    0.20298822371664
H         3.43571266411410    2.11681917879521   -0.54424844726746
