38
 energy: -53.127600384126 gnorm: 0.149917001828 xtb: 6.4.1 (79825abcba525fcdf90b791dcacef51065a7a4e7)
C         1.03577787719034    0.98539315332188   -0.01440700174278
C         2.49288728244972    0.28911938055644    0.30957438811867
C         3.28928861934405   -0.33971249475751    1.69491942964572
C         2.36026270867537   -1.28901345837537    2.52784249088171
C         0.96747434322020   -1.00955842043530    2.02002189977057
C        -0.08010262270668   -1.96689293680905    2.57227390853553
C         1.17422505496592   -1.64278812484430    0.45631993157226
C         2.29671982500739   -1.00908091935756   -0.47116296954994
C         3.50938988658526   -1.89433683841674   -0.70903387504829
N         4.47278674045604   -1.16985021524704   -1.36232674477817
N         3.71880212781349   -3.14160545606593   -0.40671170614825
C         0.60074605828454    0.54718552389506    2.39041014763198
N        -0.58842646127550    1.07281902217089    2.37573058909712
O         1.66946659610800    1.18848236066955    2.83839769459463
C         2.27551038663735    2.38085555931985    2.25116473693602
O         3.42322691869215    2.29886380898965    1.37055728285068
C         3.38621684334835    1.49762820305819    0.15213743741894
H         1.18110538834215    1.22238545234532   -1.07313885154729
H         0.87020631120946    1.93638209244694    0.51564048469375
H         0.06952484189874    0.49280593062106    0.00108368289618
H         3.75657791721679    0.44527943072645    2.29506410343015
H         4.12745690271833   -0.89914556870284    1.24906316996003
H         2.46848709036662   -1.12842597325154    3.60460908743949
H         2.64308877282671   -2.33219282696976    2.33746927858955
H         0.19664915658458   -2.98667614127457    2.30971870897251
H        -1.12348075016618   -1.74936487719185    2.28492535217082
H        -0.05294039883881   -2.04483502864216    3.66470373995550
H         0.19098354959145   -1.66772462101798   -0.02600128860335
H         1.48667859695862   -2.69206437586327    0.59595284204419
H         1.79529199653176   -0.73253121010718   -1.41461845413782
H         4.39892678933619   -0.17094800588961   -1.38388384822445
H         5.41744702932871   -1.46364467276454   -1.58433179809803
H         2.85021849666171   -3.64230021542096   -0.23063951866119
H        -1.37381536234882    0.54749404458201    1.99235524939932
H         2.75722919111641    2.74486303471313    3.16466470085093
H         1.47229350281083    3.06573415459613    1.96270555863625
H         4.44850979156291    1.31722358112789   -0.02585489384692
H         3.18688695341636    2.17099989417033   -0.68870322244459
