38
 energy: -53.121309288783 gnorm: 0.140355753381 xtb: 6.4.1 (79825abcba525fcdf90b791dcacef51065a7a4e7)
C         1.06750103553266    1.10450574235315    0.00183002990735
C         2.50774821064410    0.39929204176369    0.37771644805587
C         3.28678941053287   -0.34946176957938    1.71238045203450
C         2.39016351608691   -1.30208839443787    2.57643298899556
C         0.99627605212112   -1.09912971693505    2.03632022533576
C        -0.14902992166061   -2.01160575666452    2.45411304611826
C         1.20336530310797   -1.60740400050390    0.42769944480090
C         2.36159681788307   -0.90607951471587   -0.40202794479808
C         3.54073400745212   -1.82492312902063   -0.67805530992665
N         4.33840738643340   -1.35341946282211   -1.68860336822624
N         3.92782653371617   -2.94160590154501   -0.13573611932005
C         0.64343567214935    0.44007549123438    2.48518520934803
N        -0.52068989456997    1.01838924392497    2.45352757962323
O         1.75093635577148    1.07367627562527    2.84030537937955
C         2.17633627624365    2.37403652394695    2.32846204843508
O         3.23660454536018    2.46947427489214    1.34552349511593
C         3.39565089593447    1.60598278278710    0.18062785531210
H         1.18616538057974    1.31547374958470   -1.06569506624063
H         0.66285244383857    1.96378614559002    0.55918174538375
H         0.30547374326182    0.33428832784412    0.05288494551180
H         3.83400835274001    0.37586777167858    2.31999358237360
H         4.13476074947668   -0.76856542127971    1.14706994349803
H         2.50885799524705   -1.10290871361181    3.64562250775187
H         2.61776310874815   -2.35013073551768    2.34349220273851
H         0.16582039495470   -3.04823639372122    2.56251395778515
H        -0.97189450927282   -1.87355516290068    1.73136725819067
H        -0.56760526253416   -1.75046657151163    3.43228312215848
H         0.32405030849887   -1.69598600480704   -0.21958549333587
H         1.48408669787833   -2.67311310826570    0.48740544106278
H         1.88263190963440   -0.65122754517126   -1.36310074750921
H         4.15894222972193   -0.75765507020681   -2.47383114115653
H         4.86183219499930   -2.18453546469719   -1.94011312360223
H         3.35221402668189   -3.15992909162543    0.67490523291603
H        -1.21194897979574    0.36818833335117    2.08046140787803
H         2.64946649853780    2.89693428674938    3.16617461750678
H         1.26062384358130    2.90143630349004    2.04430546948004
H         4.44649351982673    1.31134953602318    0.22080779162183
H         3.26793755984410    2.06821002853376   -0.80436459171973
