38
 energy: -53.123290655929 gnorm: 0.139777188396 xtb: 6.4.1 (79825abcba525fcdf90b791dcacef51065a7a4e7)
C         1.13335365436579    1.13699038205607   -0.05302435653544
C         2.56207894870313    0.39515596972354    0.29533556293428
C         3.29392374779712   -0.31363769546508    1.67768146702736
C         2.37301767422377   -1.37277332326654    2.37638454807123
C         0.95678198311319   -1.09904868337073    1.93458416995411
C         0.05754470649886   -2.10231772263507    2.64431135352399
C         1.14836521381784   -1.52720253131140    0.30091662281370
C         2.36286578326515   -0.89265480465863   -0.50166755578058
C         3.52247163974876   -1.86818348248047   -0.62203068090920
N         4.69205824740884   -1.32792822733412   -1.09106941364089
N         3.52701978770538   -3.15230446814002   -0.41722891313921
C         0.59237298046155    0.43698985685590    2.38505107486562
N        -0.54800307994257    0.91006648069118    2.79294599921369
O         1.71752745637101    1.08939810617417    2.63506892309041
C         2.13456594922758    2.43421713094994    2.24593381109886
O         2.89289089614283    2.65510231766217    1.03119171235828
C         3.46797391057684    1.60102662702739    0.20288071362184
H         0.69460485270070    0.63272375229884   -0.91986529421229
H         1.27477372167508    2.19447384294802   -0.32592238455719
H         0.30037916800390    0.99467152021056    0.62699468874703
H         3.69433183342026    0.51508022031073    2.26729592989631
H         4.15927480405195   -0.88824111720183    1.30988031262172
H         2.47541891463794   -1.31096818365626    3.46386846269137
H         2.64647729179589   -2.34811810401163    1.95403619455826
H         0.20966078788463   -3.14490261697948    2.36978997806490
H        -1.01347012961154   -1.90368456739458    2.46543247960332
H         0.11174232273802   -2.02303094448416    3.73563711080921
H         0.16832098451240   -1.47207316148360   -0.18538933419907
H         1.35286934430113   -2.59616626606173    0.48421912054022
H         2.01892659856538   -0.69664112276769   -1.53186283159817
H         4.82382914555284   -0.39297473995820   -1.42606794850448
H         5.48132478659174   -1.95066524128431   -1.22237602238739
H         2.58791685130466   -3.46504144698562   -0.17970957591251
H        -1.32178511452060    0.28760180980616    2.56147719484689
H         2.73141432830892    2.75498313292327    3.10611856129927
H         1.20793475443632    2.99374283548969    2.08558929288769
H         4.53887933525634    1.47722437106005    0.37760322268255
H         3.42416564788814    2.06761025743785   -0.78734925845940
