38
 energy: -53.125858402742 gnorm: 0.155032644423 xtb: 6.4.1 (79825abcba525fcdf90b791dcacef51065a7a4e7)
C         1.14833472698309    1.11681525259827   -0.02241865845703
C         2.53981444808924    0.30678039936007    0.32479397857604
C         3.35520618473912   -0.38845002427768    1.66667937891250
C         2.44050463074077   -1.19300107068051    2.65361450743286
C         1.05509601269554   -1.14709129404735    2.05832336204812
C        -0.02858353166479   -2.00695131529543    2.69485186600261
C         1.19630187444224   -1.70954246581399    0.46063780708745
C         2.26685513394788   -0.97754395993975   -0.45582153879939
C         3.47105719496410   -1.85609715254154   -0.75393378267768
N         4.45976868691079   -1.25600904378475   -1.49024197269966
N         3.63530674204243   -3.12975414736724   -0.54960293055188
C         0.68493490379868    0.43868885967554    2.26667613846170
N        -0.52966966790169    0.89075849580068    2.16176598550416
O         1.64887231291676    1.17340521466440    2.80065611362797
C         2.09632621268907    2.47026377957612    2.29883110617788
O         3.21890832918387    2.40459714825547    1.38507914228762
C         3.41187806559389    1.53703393322129    0.22836314950411
H         1.22335097811091    1.46853172246832   -1.05627872736985
H         0.96801201649523    2.04539254711213    0.54147154561216
H         0.23778998420568    0.53330596505399    0.06096143835851
H         3.83929215653567    0.40924660411911    2.23596498003548
H         4.03568174479151   -1.11944774931236    1.20098144282381
H         2.39740631666977   -0.64984877880233    3.60232694215505
H         2.64488184525667   -2.23727962270590    2.92225550801676
H         0.13167311250367   -3.07680207464256    2.81822817213820
H        -1.01840886472366   -1.75442771486394    2.27651801569825
H        -0.11045769102106   -1.70585873101028    3.74502117219357
H         0.21703536596667   -1.50064778266548    0.01631859233389
H         1.42848315178258   -2.77024724994025    0.65838112747195
H         1.80382015569659   -0.85726759430077   -1.45038176149582
H         4.46483474175021   -0.28281619639537   -1.72814032945053
H         5.34263406420316   -1.70775608844365   -1.70109218932220
H         2.81825729709480   -3.59845720833709   -0.16375086357074
H        -1.15116043594433    0.12312942158255    1.90824369988870
H         2.65314961464881    2.89062299486631    3.14279938747136
H         1.27779574159243    3.14078575445784    2.01984563636121
H         4.49820512174883    1.42729425218545    0.25168948771981
H         3.10800621930118    2.06453616929686   -0.68244865064048
