38
 energy: -53.125011418870 gnorm: 0.152279047233 xtb: 6.4.1 (79825abcba525fcdf90b791dcacef51065a7a4e7)
C         1.08089853832571    1.01856014659136    0.00953532879916
C         2.53627914254534    0.32916574298005    0.35526870649366
C         3.26724721113738   -0.38001520053554    1.73787984227514
C         2.32306699201847   -1.28102203699147    2.60663335507291
C         0.96628309680797   -1.08899973232431    1.97568075143053
C        -0.19875883407160   -1.95697826078758    2.43194791493421
C         1.16885358322779   -1.61632665067722    0.37262707658793
C         2.33794580373175   -0.94370809269774   -0.46559216423053
C         3.58977384934678   -1.77282854634827   -0.70290012674949
N         4.38916641061635   -1.31793630218425   -1.71968451768281
N         3.95303946401179   -2.89323682913922   -0.15185154581385
C         0.65711379951864    0.47631694718150    2.36210909921464
N        -0.55506373621622    0.84322455780210    2.65645889859020
O         1.63771165823475    1.22338590382991    2.84629283343293
C         2.20125608562196    2.44881057132554    2.28536722657378
O         3.35230700140153    2.32383721631628    1.41421349502336
C         3.43885648390686    1.53018697717458    0.19334346079859
H         1.07993492349539    0.91270584889500   -1.07995652722788
H         0.97011357699048    2.11300575210889    0.06110806007059
H         0.26093757549745    0.38160486258295    0.32334904670137
H         3.83400195534744    0.45630637731532    2.15513338072775
H         4.09610006866002   -0.90924558129603    1.24069035985539
H         2.34832838159805   -0.97937063343169    3.65796367876905
H         2.70739097972586   -2.30569985983765    2.68901148282658
H         0.09238909050694   -3.00555011005435    2.39709787991744
H        -0.96122193527820   -1.89990200813063    1.63575830683142
H        -0.66286577784248   -1.79121301405847    3.41038662666020
H         0.21371966001482   -1.42892517409886   -0.12998541755827
H         1.33960155133272   -2.70010460035922    0.49252579602661
H         1.91408639645311   -0.86656180009114   -1.48166770316793
H         4.04000588117435   -0.62089415353905   -2.34892595382385
H         5.25617782336454   -1.81765542192799   -1.88264616887047
H         3.32445211837681   -3.08220184005169    0.62616153506972
H        -1.29257743674478    0.18021277582816    2.41925089452294
H         2.61009816232073    2.89534139796052    3.19777887069542
H         1.36580146515882    3.02761406740447    1.87987142935570
H         4.49190422112906    1.24123725787293    0.17625761762223
H         3.32397322615939    2.20225443888381   -0.66415406491795
