38
 energy: -53.128205959472 gnorm: 0.146006682610 xtb: 6.4.1 (79825abcba525fcdf90b791dcacef51065a7a4e7)
C         1.09579280461499    1.06244131298595    0.01980497622965
C         2.53772524570369    0.32395268650305    0.31711674661834
C         3.27445753877978   -0.48992329580931    1.63760789834693
C         2.33571697746193   -1.28354988722905    2.61071902099871
C         0.94578057982162   -1.13947825646907    2.04225051241553
C        -0.12721138219652   -1.92310454988150    2.78623114692018
C         1.18103648754829   -1.68087151558795    0.44837552238617
C         2.19749516571524   -0.91832778631065   -0.50406482714937
C         3.39187282127561   -1.75021694328851   -0.94252997492239
N         4.46612091998862   -0.93708562339413   -1.19672360385174
N         3.51468058983096   -3.04121829259076   -1.03826360114102
C         0.64168203596311    0.44066648291531    2.36751260689545
N        -0.52501514786865    1.01463061742126    2.37200458211609
O         1.69573418543952    1.12087223462993    2.79226221686730
C         2.37384855512328    2.36138147617230    2.42458958629719
O         3.47572816533118    2.22663779232297    1.49338025327638
C         3.49566289743235    1.48966058433414    0.23466569214187
H         1.16588254655943    1.20299613779958   -1.06349107301474
H         0.93869518932037    1.99521449246163    0.58371877645186
H         0.25847926322500    0.40283472826558    0.22068366902046
H         3.81671328472839    0.28342081380625    2.18773772910181
H         3.85999220841654   -1.29909872814031    1.17213662740351
H         2.38769347152243   -0.88868449807936    3.62969248545035
H         2.75453946324198   -2.29593267037371    2.67494165707782
H         0.07855887069281   -2.99104961584617    2.73488438867704
H        -1.13162497726925   -1.77273564984407    2.35371746993029
H        -0.12719114799585   -1.66011251805925    3.84973990277947
H         0.21190825765488   -1.58440219431318   -0.05312580347351
H         1.52086478069486   -2.72988678740624    0.40159001571581
H         1.66032279379186   -0.72928425828406   -1.44943577353673
H         4.39375865882749   -0.11193012439345   -1.76029057040622
H         5.24554540748322   -1.49557182004432   -1.52623100897342
H         2.75448090356888   -3.61156026585102   -0.67365333804517
H        -1.27992032366216    0.39330886845302    2.08242528296681
H         2.82646220699709    2.73488900993580    3.34907302255117
H         1.67975181626109    3.00760720427247    1.87865298801844
H         4.52670224143197    1.15706841832063    0.09670296510730
H         3.32022478120622    2.19137052248662   -0.58813408212675
