38
 energy: -53.124943956918 gnorm: 0.151989406748 xtb: 6.4.1 (79825abcba525fcdf90b791dcacef51065a7a4e7)
C         1.10224054392357    1.06657328330381   -0.00391446464480
C         2.54087971659108    0.35942054461122    0.37447850390046
C         3.30467465473962   -0.45738010872858    1.67767436788128
C         2.37048982641375   -1.32044418679430    2.59443026662491
C         0.98239237105776   -1.14288199261673    2.03096471837142
C        -0.09299450809720   -1.93728533862045    2.75990609057951
C         1.20265312743838   -1.63848581553108    0.42014145451759
C         2.32136707819880   -0.91270638759654   -0.44213874273365
C         3.47474075576989   -1.80903363875053   -0.86303760090783
N         4.31635938786978   -1.13672088640254   -1.71125900909775
N         3.66526761755861   -3.08761167116099   -0.72208056631495
C         0.67456627397918    0.42287043045818    2.41669940783283
N        -0.49008499643635    1.00033014572041    2.38903984254265
O         1.69357014425466    1.11088665632281    2.90902333715767
C         2.25456309587187    2.34281492968497    2.35991032064066
O         3.36954207819822    2.37996863021628    1.43530941283003
C         3.41543496561195    1.58137898554090    0.21545549841963
H         1.17099650257463    1.27137702801233   -1.07700654133693
H         1.04985958688872    2.08522121261950    0.41124438667526
H         0.15912168401570    0.54491840098008    0.11827414201138
H         3.85132805941684    0.31610294969633    2.22323760932380
H         3.97136488826457   -1.14468471427583    1.13231600050131
H         2.34976234995902   -1.20895069875064    3.68257857010311
H         2.57863932169193   -2.39046886629457    2.46724256570181
H        -0.82475332023710   -2.44641535682529    2.13476593075500
H        -0.69710750527032   -1.32721829824488    3.45372974168547
H         0.28209684362626   -2.64209315823750    3.51008480380187
H         0.19996967091391   -1.67205584091771   -0.01976577654122
H         1.50923308635460   -2.65985494066286    0.70460420207019
H         1.91809141918800   -0.68991472321208   -1.44500985565463
H         4.59787421446985   -0.17889330503268   -1.62734630268528
H         5.06001521262449   -1.79144164717174   -1.92643622755528
H         2.88357468589042   -3.47910316810969   -0.20071241692251
H        -1.28529767348476    0.41961321720196    2.12411841887832
H         2.68869914329922    2.77725115539865    3.26645744517098
H         1.49153654996753    2.99912684438314    1.93041071547444
H         4.47489978816029    1.41135894533597    0.01218015116967
H         3.11811439507454    2.15601631203238   -0.66860743359660
