38
 energy: -53.123580954116 gnorm: 0.162956172046 xtb: 6.4.1 (79825abcba525fcdf90b791dcacef51065a7a4e7)
C         1.15087470212170    1.19265018720908    0.16807182489125
C         2.59901874295718    0.43927079145986    0.38767878960821
C         3.32939728244258   -0.42377431871810    1.68018248011176
C         2.38256065663632   -1.39138096185324    2.47091635152619
C         1.00444947767287   -1.11960015110631    1.92066090446456
C        -0.00325229247344   -2.05448658795796    2.57595750650239
C         1.10699433749264   -1.52584382683827    0.27343894900374
C         2.29015990656253   -0.78019563776764   -0.47884546595039
C         3.40759565105812   -1.76604777554498   -0.77928204423728
N         4.22438420570786   -1.45135900449720   -1.83457031658574
N         3.61031661472080   -2.96345893909245   -0.31447900281091
C         0.67328654768928    0.42498363970874    2.36756227187930
N        -0.50726382649639    0.95161477929327    2.50755445180006
O         1.71757714645746    1.02848152700186    2.91470531672327
C         2.25176353404295    2.30553646899600    2.44816374105068
O         3.36323860240877    2.39124193996783    1.52257035986993
C         3.53956404549598    1.61852462999765    0.29794288945486
H         1.26511893965496    1.66262122877671   -0.81390273402356
H         0.90728846913978    2.10012435251108    0.74244158331731
H         0.30405419787775    0.51718784069937    0.11174501204696
H         3.85385657882737    0.34278226740619    2.25644516391965
H         4.00338025990475   -0.89507284966371    0.94676317284130
H         2.33776879522970   -1.08855039051761    3.52125653157659
H         2.70428492705645   -2.43899898646162    2.41221632409210
H         0.24639683965136   -3.11003536743876    2.48121236008705
H        -0.96743835224171   -2.13412196275609    2.04442292276976
H        -0.15094874882855   -1.81856831344566    3.63555366223829
H         0.10998014741720   -1.25867144372476   -0.09344122043881
H         1.19792291710140   -2.62514280906290    0.23630482823598
H         1.84644311010408   -0.44951958682614   -1.43372063548314
H         3.88979227183465   -0.83476998935368   -2.54982680170715
H         4.97549767832456   -2.09648641688556   -2.05279876660934
H         3.11358446030769   -3.19819544317740    0.54242829181439
H        -1.22583818220400    0.36926478578453    2.07825490933695
H         2.78579734589011    2.85315803126106    3.23171663496879
H         1.37797793619305    2.90213271931354    2.16888539976602
H         4.61157081619789    1.42629137693750    0.21706493904512
H         3.32065862809904    2.15121612679933   -0.63398791816282
