38
 energy: -53.128586890186 gnorm: 0.152259868136 xtb: 6.4.1 (79825abcba525fcdf90b791dcacef51065a7a4e7)
C         1.07116829555359    1.12955060394964   -0.04270506538340
C         2.53019889612370    0.47832274913078    0.35737103081475
C         3.30893654005915   -0.28850274543277    1.68191314415678
C         2.48057317318393   -1.33402418442802    2.50575859126599
C         1.05219558257995   -1.16867767649597    2.04943164174486
C        -0.03539615876972   -2.05599772621149    2.63993691802956
C         1.19909334671564   -1.55425557913456    0.40060166311646
C         2.34828884224910   -0.82528659325000   -0.41778564136486
C         3.45095423768565   -1.84336287841697   -0.65960983946988
N         4.17905642353362   -1.55131619007625   -1.78405719733430
N         3.72255063883935   -3.01556311432521   -0.16654477052835
C         0.67350230029691    0.39739562566243    2.36428819681252
N        -0.49127438798176    0.96608668100669    2.26170594484187
O         1.74039408975403    1.03326204700394    2.82421633317632
C         2.13543062986677    2.34100557051836    2.30687844237893
O         3.34401590715063    2.40143369833651    1.50993713259100
C         3.42071406263602    1.69315313198378    0.23700697232972
H         1.21198197337974    1.38443588144059   -1.09788446342877
H         0.90032696272199    2.06948240942060    0.50509570019657
H         0.15309923169068    0.56299672892263    0.06995795445678
H         3.73828199954979    0.31174065810966    2.48821058584331
H         4.11157054089467   -0.78177411539623    1.11030029308288
H         2.57090516011587   -1.16202289116546    3.58241213068482
H         2.80800525262420   -2.37300749430781    2.37250077711175
H         0.09332956107475   -3.12840892583951    2.50264720861759
H        -0.99504132867986   -1.90890567871568    2.11460783321134
H        -0.16540415253705   -1.86879556389808    3.71151004283699
H         0.22025096994500   -1.46853513232733   -0.08369065037603
H         1.54140729937838   -2.60345136387296    0.38989711890546
H         1.94779453575364   -0.68222874562651   -1.43619450454852
H         4.19068118311803   -0.56730806001141   -1.97198933791957
H         5.04862965355273   -1.99208531984624   -2.06253422873913
H         3.08093384354643   -3.23644640601550    0.59218616807364
H        -1.23279297552573    0.34538434208371    1.93819781726683
H         2.34334142706221    2.89119629640612    3.23051251440169
H         1.35403319951864    2.91437748583810    1.79885535621751
H         4.49974246374425    1.55706248059482    0.13765691510285
H         3.07194019154675    2.38566050687213   -0.53692142871317
