38
 energy: -53.127233943229 gnorm: 0.144277218787 xtb: 6.4.1 (79825abcba525fcdf90b791dcacef51065a7a4e7)
C         1.18481411700724    1.16631404055353   -0.06406836583511
C         2.50728841212008    0.29733222826542    0.39294504431876
C         3.21811018216225   -0.40412168892149    1.78992761478524
C         2.29605041175224   -1.35861958914898    2.62465021730723
C         0.94432517997725   -1.10769145345168    2.00359445033730
C        -0.09614683150071   -2.02152193719555    2.63701452765567
C         1.11762936826873   -1.64737607420833    0.40122254880240
C         2.31866813744851   -0.99171253683266   -0.40464035520245
C         3.58190442731450   -1.76144203237704   -0.75475434813946
N         4.28500965442746   -1.30104574818327   -1.83802911015035
N         4.15682710627553   -2.77255263031594   -0.17333330488067
C         0.60376784518507    0.45046637221954    2.39255934775795
N        -0.59118121842468    0.95281104062688    2.49446089053698
O         1.63111522262420    1.18136721791656    2.79809527262222
C         2.08360309772125    2.42084101317941    2.17132186087577
O         3.26682411128679    2.33610630588983    1.33930416693190
C         3.53858042070194    1.39367212101907    0.25955350854748
H         0.87093419604599    0.90345556324547   -1.07924488787679
H         1.47064514068503    2.22979629627738   -0.07116493763173
H         0.26764103656776    1.17720027975463    0.51489803068152
H         3.68539313142426    0.44851525602102    2.28932938408649
H         4.06342734465032   -0.88144894404058    1.26850952238795
H         2.39334636916002   -1.08731930194505    3.68004436575421
H         2.58532991078452   -2.40528421055628    2.46569652792000
H        -0.05417751245679   -3.01885134859825    2.20220746321256
H        -1.11128021021805   -1.70671300512121    2.33881135757400
H        -0.12726398443513   -2.11589114162557    3.72804242086617
H         0.12206931749524   -1.51473799594674   -0.03614086707678
H         1.36705733057842   -2.71718525479818    0.50798966886159
H         1.93136784183310   -0.75192385737619   -1.40988546316769
H         4.16111224352653   -0.34975907250594   -2.12686939236105
H         5.09948217103412   -1.83012746078523   -2.12904723060326
H         3.56385726293091   -3.22535895992911    0.51911695878569
H        -1.28619046662777    0.21781916415155    2.36590037676504
H         2.51664048886488    2.92501187773816    3.04156722339229
H         1.27498147253793    2.95877688551207    1.66715837884826
H         4.58215273961605    1.12381117355024    0.43512482517809
H         3.33257776149087    1.85863000291236   -0.71078248104281
