38
 energy: -53.129487355852 gnorm: 0.148548252986 xtb: 6.4.1 (79825abcba525fcdf90b791dcacef51065a7a4e7)
C         1.01348214014643    1.04435552390138   -0.09406500733136
C         2.44893428307646    0.31947524584474    0.26224191220769
C         3.18930593978986   -0.33833032342146    1.66509868132953
C         2.39514233664419   -1.31888468783216    2.59560369680443
C         1.02319860904671   -1.08635940054676    2.01290422485605
C        -0.12216938199839   -1.89423034624254    2.60819056997560
C         1.20442622489729   -1.75079105933751    0.45901342245054
C         2.23799393820255   -0.99751981893600   -0.48232818943855
C         3.52472091619826   -1.78027664884510   -0.68837350967439
N         4.39205514058790   -1.19601031162850   -1.57503584714926
N         3.87114233492278   -2.96673821056788   -0.28435330876647
C         0.66673862512232    0.47641026032172    2.36760976858406
N        -0.52053901973394    0.93722797856853    2.62963297841077
O         1.66650777159482    1.23356222173796    2.79340385240260
C         2.17205151310500    2.46404225579434    2.18988925280479
O         3.34612576935741    2.24889808989751    1.36848314270363
C         3.45127031560438    1.44521124127547    0.15566525626572
H         1.17963720472145    1.31047353190621   -1.14276527954274
H         0.94890682067198    2.02966976440383    0.39351074422537
H         0.08791039160748    0.50054845676579    0.06123427329404
H         3.75463508221280    0.34168329084003    2.30753908869412
H         4.00035209588334   -0.93463948443649    1.21688137208431
H         2.33015886610827   -1.06133796159904    3.65691137532188
H         2.77449089751578   -2.34708694086861    2.53772006404669
H         0.16722599617520   -2.94321178388617    2.57113899564139
H        -1.03736451794969   -1.69160495438288    2.02519281601953
H        -0.35530742851936   -1.61008353035944    3.64023849758913
H         0.26413648925758   -1.83398250049059   -0.09682272130063
H         1.53658484080675   -2.79340779551552    0.60297937165365
H         1.94081623525005   -0.87664595344026   -1.53830771449308
H         4.43979871345161   -0.20893188462051   -1.73972447489422
H         5.24351538835064   -1.64985029881885   -1.88653094439808
H         3.16859939858737   -3.38384956348375    0.32275929745504
H        -1.18981354136152    0.21299721618948    2.37013320124779
H         2.55346808608248    3.12847193153328    2.97225184641088
H         1.29153084216108    2.91226565670020    1.71956608932089
H         4.47193009105351    1.06745745349482    0.24648979109678
H         3.33805152763215    2.13499088971850   -0.68787513117325
