38
 energy: -53.125026142750 gnorm: 0.158588448151 xtb: 6.4.1 (79825abcba525fcdf90b791dcacef51065a7a4e7)
C         1.20946922201922    1.17389263344345   -0.05836604732204
C         2.59167478278752    0.36914307694589    0.33509912933308
C         3.25018059359809   -0.39030897495442    1.72738794745909
C         2.39785098463573   -1.37635745554922    2.59874602834845
C         0.98808612810744   -1.17214642322281    2.10205980482552
C        -0.05429316455021   -2.03887237651558    2.79568843732286
C         1.08004560161686   -1.53956093888814    0.44512299875769
C         2.21853921883960   -0.88730556165863   -0.44941543696979
C         3.33089964914945   -1.78504314645339   -0.96666848631064
N         4.16349258846010   -1.15438717692381   -1.85485086984060
N         3.60441284996796   -2.99582903860840   -0.57921629305712
C         0.66006889723347    0.40528858558530    2.41707141757873
N        -0.52207888710909    0.94435854258098    2.36640030465581
O         1.71798745408453    1.09809846358384    2.81069671171525
C         2.23224768152781    2.38513109401479    2.34921117390351
O         3.42899192481283    2.22460332316502    1.54828706583640
C         3.61822014958471    1.47768936121874    0.30965581854276
H         1.37038314562215    1.27330342623722   -1.13652316333718
H         1.11360993625725    2.19318126267339    0.34735051105021
H         0.34982422184148    0.52034800269469    0.04369742886328
H         3.74259372250212    0.42502528551675    2.26358249455692
H         3.97930228018094   -0.99001292543058    1.15904299909626
H         2.45905585832088   -1.14230561359422    3.66570472382842
H         2.73455787002114   -2.41834963722036    2.52569470141819
H         0.41786792834210   -2.77316999185633    3.44634616181981
H        -0.56744889448325   -2.64819841541998    2.03154280571135
H        -0.81873111411272   -1.46080054199647    3.32642685336018
H         0.08886204442010   -1.51967062390145   -0.02090163551536
H         1.46985236732917   -2.55672811409308    0.62268100337024
H         1.72965415689979   -0.67726778541552   -1.41631428180976
H         3.89031254983883   -0.23151269350177   -2.13306116925090
H         5.06404907293081   -1.50850487800549   -2.15747795160565
H         3.01216365399099   -3.32558640736663    0.18014866637096
H        -1.22007118071672    0.29743194381374    2.00024261661047
H         2.67917432327361    2.79406230378237    3.26138904941208
H         1.40844778991599    3.02374728908785    2.01612283426545
H         4.67181142292214    1.28873049711377    0.52629691599542
H         3.58183714254438    2.19491440189418   -0.51765268328803
