38
 energy: -53.132654062006 gnorm: 0.157783677660 xtb: 6.4.1 (79825abcba525fcdf90b791dcacef51065a7a4e7)
C         1.16022149195307    1.18828588986401    0.10572452307513
C         2.59545072773797    0.40616048631070    0.30901205411076
C         3.33666704871154   -0.36523937874640    1.65229389681062
C         2.41127164805097   -1.36771749331418    2.42475960204363
C         0.99954973779139   -1.11824099847894    1.95503730326686
C        -0.09197293986887   -2.03530953069048    2.49025009385587
C         1.02799909821120   -1.46259102539059    0.29085483535994
C         2.24775020568930   -0.83565227735033   -0.50974424676611
C         3.34120193923306   -1.84148837389003   -0.83143711476107
N         4.43238443437185   -1.40482553596115   -1.53744862010213
N         3.51060465403281   -3.07969779509164   -0.47217214686305
C         0.62819142198127    0.42536174082450    2.37278416824427
N        -0.56950708715766    0.91532362793579    2.49964236966760
O         1.71290622599832    1.03928952921369    2.82067316048556
C         2.30912165690745    2.32417307971564    2.46362008886807
O         3.39778945025743    2.33304962787839    1.50749822601048
C         3.49550377973655    1.61795093469542    0.23983071296467
H         1.16291017090604    1.62439178427924   -0.89826899371128
H         1.06425571422132    2.07359544883106    0.75361479011644
H         0.20900805941153    0.66853959694644    0.14552225013249
H         3.81382451345132    0.40931722176330    2.25820483644879
H         4.16720055054697   -0.89979352474056    1.16367829497354
H         2.48000528836952   -1.19969693336088    3.50363491628232
H         2.67481148359864   -2.41844517279725    2.24876575327318
H         0.27455040552751   -3.01810001599554    2.19824312265906
H        -1.14220287978182   -1.78992566779838    2.25502805852092
H        -0.04033938994790   -1.96306149430666    3.58218869089025
H         0.05785365401320   -1.18353693159799   -0.13454623942473
H         1.16064588414048   -2.55712437599619    0.34092274397052
H         1.92842288336015   -0.52317655353517   -1.51890569941535
H         4.43856805279519   -0.49425311122059   -1.95523473749832
H         5.29282179096812   -1.93804983408980   -1.47996914643716
H         2.88799990791021   -3.55848861753808    0.17532831566872
H        -1.35450176541057    0.30427650193527    2.27562567209261
H         2.80122150623547    2.56392150340013    3.41198450454282
H         1.52256563279540    3.04948881962629    2.23411747633868
H         4.55751538478784    1.42503327255246    0.07367559268931
H         3.08436114526662    2.31421607570673   -0.49932518399063
