38
 energy: -53.123306715910 gnorm: 0.161029764209 xtb: 6.4.1 (79825abcba525fcdf90b791dcacef51065a7a4e7)
C         1.12763880139888    0.99796054153699   -0.05486502606678
C         2.52404458958657    0.31675063403770    0.49188249210542
C         3.31746813378615   -0.34274763233734    1.86461939053121
C         2.39449704706026   -1.29543557580934    2.70040186356213
C         1.05005509619364   -1.15703703869929    2.03020935634958
C        -0.11264495295364   -1.89335028570460    2.68202264908053
C         1.22373143978944   -1.71698990749298    0.43484767297012
C         2.31500486130124   -0.91185510637928   -0.39139933641793
C         3.48161634979988   -1.77542893461297   -0.84315933796310
N         4.26071553584624   -1.29887203245282   -1.86575597452949
N         3.82128805484456   -2.99074450507640   -0.52921292958554
C         0.71625723140905    0.43539069752560    2.24902835823317
N        -0.49578511335362    0.90518842408339    2.27870733321510
O         1.64486483733763    1.17962749270138    2.83033516434825
C         2.07571691163987    2.46609497599961    2.28880640751665
O         3.29365806584725    2.39035352209162    1.50757151090202
C         3.41866333270245    1.52500490360883    0.33990691286393
H         1.36805415090529    1.16442298873555   -1.10970590290928
H         0.77662623640333    1.93194473909904    0.41119069501694
H         0.30422175278542    0.29365664171631   -0.00519163692010
H         3.59512295651842    0.51204407117552    2.48669991814225
H         4.07101435646899   -0.95205806667106    1.34003562749313
H         2.46881394141345   -1.00894612281914    3.75364825175256
H         2.78155635978805   -2.31894611566354    2.61633642159007
H         0.08216433521059   -2.93786526384388    2.44427830987085
H        -1.10386691581138   -1.69194455162559    2.23993632105853
H        -0.21140118413259   -1.68486075612210    3.75300118233139
H         0.24295114777506   -1.58109776397520   -0.03379162539377
H         1.60206763062619   -2.74276460336413    0.58568937386062
H         1.84352638809985   -0.69490035358856   -1.36538934594166
H         4.35491547392209   -0.33292526165181   -2.11434965503643
H         5.08153296620000   -1.88031132514783   -1.99292351746836
H         3.32578513371064   -3.40747214037138    0.25624814787165
H        -1.17808189256197    0.29210598191736    1.83330891992613
H         2.37487099928056    3.14597830511289    3.09335729033165
H         1.32683481071182    3.07568486075296    1.77402438913040
H         4.44247919176702    1.14925151908110    0.39738634893471
H         3.22257157295453    1.98336152483526   -0.63560940285762
