38
 energy: -53.129402005087 gnorm: 0.153948678034 xtb: 6.4.1 (79825abcba525fcdf90b791dcacef51065a7a4e7)
C         1.10556318661126    1.25022555257767   -0.04094865367893
C         2.44674650899616    0.37949408162155    0.35399801309848
C         3.29349324406237   -0.37087985846261    1.64582786731603
C         2.50945777875128   -1.41561196688210    2.51291810685990
C         1.09285425279352   -1.21124149811878    2.03615458256856
C         0.00507320821954   -2.00161395776425    2.75095031128129
C         1.02654333819460   -1.55811250055093    0.37357437820480
C         2.21692520588625   -0.90089900525990   -0.44670926058411
C         3.37725715320685   -1.80732610454568   -0.82466281156485
N         4.56170418957849   -1.22544057502381   -1.19655034309357
N         3.32282797096824   -3.10545727614164   -0.87780479625603
C         0.81143493459996    0.34619000070471    2.47243331411740
N        -0.39708020767580    0.82579515244605    2.48279759842717
O         1.81471060043464    1.10005997171586    2.89579613244597
C         2.19141547496692    2.37690226336325    2.29442048003024
O         3.31818238931299    2.40111939884337    1.38378596238466
C         3.39807348249269    1.54414048974812    0.20603398800779
H         1.14637620289399    1.42524373979785   -1.12071783414065
H         0.99994127709511    2.26377404948640    0.37655306617013
H         0.12291815756483    0.85080131390189    0.18575836520871
H         3.75597403562738    0.43314138728269    2.22410685519592
H         3.97502597428520   -1.01211495717852    1.06392587958596
H         2.67468551359535   -1.19716143838627    3.57211889873676
H         2.83265887578618   -2.41291997161220    2.18830521538420
H         0.26931145198390   -3.03749226831343    2.95739361275843
H        -0.88801016203237   -2.05783163659604    2.10460114924450
H        -0.28501077630181   -1.48164568538792    3.67056978287769
H         0.02473538735772   -1.21924571699093    0.08797050875305
H         1.08317547380894   -2.65918554718249    0.42393459408861
H         1.87191059279016   -0.75827398626814   -1.48528562597052
H         4.80079883255378   -0.25607204053988   -1.11358045238631
H         5.18379986550826   -1.77798675494114   -1.77592428840662
H         2.45609865059385   -3.53425004726447   -0.55991925659838
H        -1.17335959604177    0.25350086997343    2.15166578425961
H         2.67638647067364    2.84181378903695    3.15911524782513
H         1.30794052753414    2.91034534348966    1.93064136035274
H         4.45902459530351    1.29986976306720    0.11996462504408
H         3.21756175234640    2.18912291300617   -0.66090778089086
