38
 energy: -53.124420870338 gnorm: 0.151149708255 xtb: 6.4.1 (79825abcba525fcdf90b791dcacef51065a7a4e7)
C         1.11337427009288    1.12883060053052   -0.03792495024584
C         2.53388586449524    0.36973274430324    0.30681576651024
C         3.27501361528009   -0.22091799442184    1.73885167554084
C         2.38030993372701   -1.32853241472081    2.39514269129536
C         0.97222583991864   -1.03807217276018    1.93823098344076
C        -0.00697560991142   -2.02124637918937    2.56546470515043
C         1.05821090935279   -1.56674577584381    0.32515927924846
C         2.29942543463069   -0.94062697900644   -0.44241195229506
C         3.46059147266076   -1.90204643154055   -0.63784819069739
N         4.56612777416838   -1.21245903193176   -1.06453851280531
N         3.54835307284549   -3.19463048834494   -0.52624387601943
C         0.58633284141101    0.49814658867058    2.36979473136376
N        -0.65843702627431    0.83279154241560    2.54066912298395
O         1.59935067987145    1.24426195082497    2.78358784970390
C         2.28323747894884    2.42051039849462    2.25196405359560
O         3.39504224855088    2.34620272437325    1.32578163654615
C         3.51503407117816    1.50660815351934    0.13894632005868
H         1.12693633073373    0.95838566162498   -1.11911094559890
H         0.96732037370821    2.19371173124352    0.20174288667999
H         0.23053741986538    0.67113142443033    0.39524663544560
H         3.59369217026496    0.53382788770468    2.46241774993280
H         4.11819709346947   -0.68254437968209    1.20012916422037
H         2.49179640283189   -1.36105486350116    3.48300307286163
H         2.71232483135314   -2.24603067889417    1.89272973649977
H         0.37207272950164   -2.99469543685564    2.25853823953490
H        -1.07902894323055   -1.91308979679770    2.32561190723142
H        -0.06730591670358   -1.89125558283395    3.65159468684960
H         0.08983988825441   -1.38180276188175   -0.15241069266239
H         1.22438872917008   -2.65780434206718    0.31614009309194
H         1.95914455435695   -0.82154794738877   -1.48550684761806
H         4.44398327103833   -0.30613898236624   -1.47367212045605
H         5.29140979204611   -1.82424253901601   -1.42184990119761
H         2.77495587542698   -3.63170033811529   -0.02929227154350
H        -1.34003893969591    0.08280848166846    2.65346516036732
H         2.73751578100759    2.86177757317418    3.14524515430168
H         1.59931847003116    3.15633994056735    1.81810415662919
H         4.55318420968114    1.16809178413023    0.12038945484176
H         3.38818585433849    2.21058284761336   -0.69081509429034
