38
 energy: -53.128523919712 gnorm: 0.145069043495 xtb: 6.4.1 (79825abcba525fcdf90b791dcacef51065a7a4e7)
C         1.09658814441038    1.15624094579533   -0.01617554160834
C         2.56307186598817    0.46252497179076    0.26862707700978
C         3.31281762694822   -0.18890597486970    1.66947841520693
C         2.49212545512652   -1.30891560158666    2.39753408370410
C         1.04688736286701   -1.12382436127346    2.00655535069355
C         0.14602142578534   -2.11590944786159    2.72980972177241
C         1.10435311343442   -1.46320290520131    0.34210065364745
C         2.32153083916063   -0.85064027673713   -0.47340485229475
C         3.42448892711841   -1.88084206060996   -0.65505547584577
N         4.53458900037083   -1.50660469696971   -1.36739676921242
N         3.38489117853743   -3.13533443748908   -0.31503776320289
C         0.58676842480833    0.41747591085545    2.33490400088165
N        -0.64246861114097    0.84053286910004    2.36013227600301
O         1.58898389317002    1.13317363049621    2.82220163565715
C         2.16142550154400    2.34763009549763    2.24662231502495
O         3.28927022098178    2.40846290916286    1.33903704932362
C         3.43911321091435    1.67984359306689    0.08422386841795
H         1.06234409481824    1.40790646142093   -1.08092451208771
H         0.88728111317806    2.16458148313820    0.37393234010745
H         0.25621403169808    0.50099201406022    0.18617871529858
H         3.66455932859749    0.54385667251879    2.40028749062949
H         4.19012759049625   -0.65332140347369    1.19101757817833
H         2.56765885495319   -1.31903724146520    3.48891825516534
H         2.89592747308342   -2.26972814618859    2.05367522999940
H         0.72112781640386   -3.00707583640675    2.97589845942108
H        -0.78658476757107   -2.34152960451981    2.18403797510379
H        -0.15989004973668   -1.62408827904731    3.65972681558102
H         0.16335751231691   -1.33700607582051   -0.20436166042313
H         1.27419638100255   -2.54652082014238    0.46732356616472
H         1.88699566028226   -0.67546977285779   -1.47266073194418
H         4.69826644002812   -0.53712604905403   -1.55987133943208
H         5.35507627130669   -2.08844561391776   -1.23993591293318
H         2.52503790189144   -3.42211241442861    0.14815216327322
H        -1.25940275059672    0.05513848179639    2.15439787918084
H         2.71492870780116    2.72004459818151    3.11494153546358
H         1.31127587549984    3.00757677466961    2.04878213288240
H         4.49125405183034    1.40797841884064   -0.02432273624427
H         3.14594937684246    2.45059112154424   -0.63700982957877
