38
 energy: -53.130012487768 gnorm: 0.145165150048 xtb: 6.4.1 (79825abcba525fcdf90b791dcacef51065a7a4e7)
C         1.14594809018902    1.13837152754824   -0.07226862986740
C         2.51731409115194    0.39125677373496    0.45128054237448
C         3.24430171837994   -0.38419942407347    1.79999183162549
C         2.37686780397071   -1.39941236165297    2.62152902635496
C         0.99362219389149   -1.14595603414124    2.07542670180565
C        -0.15340659685340   -1.99851599702711    2.60112205498467
C         1.19003359135015   -1.64608887285857    0.46291956191331
C         2.32225436442946   -0.89107881297440   -0.35551783805345
C         3.54265837866998   -1.73887363169194   -0.67596635389043
N         4.17915266188270   -1.35862819073253   -1.82926352410563
N         3.82267468837382   -2.97356574363858   -0.37922163286735
C         0.66392540703623    0.45307546865748    2.24726118675962
N        -0.54908105606448    0.92113795184366    2.23421552674733
O         1.61159824279770    1.20695107398777    2.78364335528290
C         2.21199425978495    2.44874141572423    2.30263728802760
O         3.46724265951326    2.29793209195075    1.59478604579275
C         3.48545063586049    1.54652708086440    0.34460440330108
H         1.40135764146659    1.45994699448254   -1.08693790550648
H         0.73920329142757    2.03632085691060    0.41863859358026
H         0.39006689708809    0.37848656276049   -0.23883851385158
H         3.72006202649144    0.37279591882256    2.42876477358518
H         4.12497135212287   -0.91008220011127    1.39731636243857
H         2.62918756719222   -1.17609801541815    3.66239049034217
H         2.62832618667789   -2.45915631441408    2.48674341435473
H         0.04649419358427   -3.06583256773527    2.68086893962268
H        -1.00830617237351   -1.75906654078606    1.94512186746435
H        -0.47849326241513   -1.62977900632067    3.58018660038542
H         0.20426411934180   -1.46048199397776    0.02266045429903
H         1.39958653293359   -2.72906653890440    0.42614798393646
H         1.97158430129115   -0.66760285401613   -1.37782251854728
H         4.07787630463993   -0.43057265534807   -2.19283145845375
H         4.94987429787588   -1.95510901428222   -2.10887625426593
H         3.34055572848994   -3.47584773865846    0.36334706963761
H        -1.32355238124342    0.31313047123128    1.96907446742145
H         2.48411993748968    3.01907938946139    3.19689610839096
H         1.46345773528103    3.00396424438197    1.72918682625467
H         4.53547171498349    1.25342938247613    0.27946705138736
H         3.35500737598486    2.17271740971564   -0.54480274479294
