38
 energy: -53.124564751666 gnorm: 0.146887964231 xtb: 6.4.1 (79825abcba525fcdf90b791dcacef51065a7a4e7)
C         1.15829625246465    1.29056315632648   -0.07977423619836
C         2.51646145704612    0.41474616183084    0.23844074744922
C         3.24620938065538   -0.27082274472635    1.63354960383074
C         2.42617158932108   -1.35386682459981    2.41622183402668
C         0.98642466167980   -1.10756296168717    2.03899578583314
C         0.11814240351680   -2.17835850418864    2.68581258297297
C         1.02016736273326   -1.45826789418983    0.37623992771611
C         2.23822333447915   -0.90471499213581   -0.47916797474140
C         3.38186531301863   -1.87887254462803   -0.71139486583246
N         4.59174788750375   -1.30121942387067   -0.99828673444978
N         3.48924649724034   -3.14494520606729   -0.43488001692918
C         0.62648783034598    0.45241784357497    2.40236086322619
N        -0.59019583432541    0.89788837606110    2.51132976359979
O         1.68957054271654    1.12487358560218    2.81682013401453
C         2.17043613508073    2.38583352496483    2.25768349768980
O         3.21362019434073    2.41644504765408    1.25255896868047
C         3.48820356102035    1.56375638511781    0.10128959410441
H         1.20969192003767    1.15000625431072   -1.16411772854907
H         1.16398233292154    2.38684243187123    0.02455051581702
H         0.24029662859458    0.86164519448263    0.30730861536841
H         3.67473700220257    0.45121631937597    2.33338451383643
H         4.12029845042042   -0.72532918300691    1.13991873464411
H         2.53712447009550   -1.11997654486951    3.47919500422734
H         2.72677123990066   -2.37628895740827    2.15402236175694
H         0.55421447229023   -3.13519520143798    2.40334267109916
H        -0.94273613646825   -2.20023658626918    2.38153699335395
H         0.20541706960474   -2.25855871270683    3.77492540805778
H         0.08792885018403   -1.10900626576622   -0.08088928315010
H         1.07842228652837   -2.54635612776598    0.20081024422416
H         1.76049238492829   -0.80400688213367   -1.46894010088827
H         4.68386101994711   -0.45441632665614   -1.52570052102477
H         5.42609876135268   -1.86594547398914   -0.88458715745340
H         2.62765087230800   -3.67079158013442   -0.30345420832657
H        -1.26522821393077    0.25125427450588    2.10393027615111
H         2.61368497518845    2.92559705922049    3.10102353500634
H         1.24851138010359    2.94175293511995    2.06163986932489
H         4.54753444502919    1.31326592531105    0.18941454434962
H         3.41375284674949    2.06697146379936   -0.86897146481972
