38
 energy: -53.130643115633 gnorm: 0.160111286830 xtb: 6.4.1 (79825abcba525fcdf90b791dcacef51065a7a4e7)
C         1.07982828747765    1.06102902860983   -0.15819020906975
C         2.50708226534949    0.39655516215295    0.32590633043642
C         3.26663809973370   -0.30785434037611    1.69548570351822
C         2.40885063934980   -1.22788234091140    2.63131230333624
C         1.02834914081838   -1.11897039454239    2.03282246258880
C        -0.07944675203077   -1.99699920128830    2.59916407673334
C         1.14208682694272   -1.62622586993545    0.41459962005360
C         2.30078375775929   -0.92397244213353   -0.41369101787580
C         3.47263060142626   -1.81602413957436   -0.79031813746923
N         4.63605345833264   -1.14357191304783   -1.06245996197771
N         3.51083175447518   -3.11009478670272   -0.66844527604590
C         0.63749492978092    0.42239299962062    2.44094092277316
N        -0.59320779463903    0.77847576247194    2.66278145117792
O         1.64865764857801    1.21425900302923    2.76438526268661
C         2.14130820494269    2.42332556233173    2.10914565337630
O         3.39624069422998    2.32028249211947    1.39222728381690
C         3.50400404016732    1.52215891844746    0.17597032629457
H         1.20236218390802    1.29077130059715   -1.22139408805951
H         0.76173493557630    2.00350381567961    0.31435833864634
H         0.21711964006619    0.43993325510652    0.05745044238706
H         3.72277342780407    0.52385438010032    2.23857538545710
H         4.06588196617019   -0.89053434923561    1.20971571134932
H         2.55497275609100   -0.84258755237697    3.64478327417348
H         2.92185274808139   -2.19502958979415    2.55443082788487
H         0.31506687842516   -3.00937626452191    2.66942246377452
H        -0.90887147910664   -2.10531830791773    1.87885361396353
H        -0.41825705269978   -1.76812459349751    3.61554967346744
H         0.16367609862021   -1.43483691713415   -0.03938513469536
H         1.43663703961632   -2.68524197818063    0.51374731546931
H         1.84550034533375   -0.82894203730843   -1.41454270006860
H         4.49736429458357   -0.25599225431386   -1.50596113004101
H         5.39286836867809   -1.71459279194309   -1.42183558149250
H         2.65737023044266   -3.60929157583102   -0.42649452857220
H        -1.29064141488167    0.09124028667208    2.37804919188757
H         2.53798908387143    3.01667784743167    2.93957564811505
H         1.34902535218196    2.93822324679291    1.55724620459813
H         4.54724502444200    1.20216661439433    0.13185036503664
H         3.25619631395825    2.12947632737886   -0.70148722112807
