38
 energy: -53.121334287548 gnorm: 0.162643357277 xtb: 6.4.1 (79825abcba525fcdf90b791dcacef51065a7a4e7)
C         1.14545519373983    1.07650497508654   -0.09671435477321
C         2.53473402430806    0.33260539754321    0.38229152782575
C         3.27750336332058   -0.34163181516993    1.77605023295863
C         2.34396510696944   -1.29630743171524    2.59770894680241
C         0.95829079545888   -1.10500058086479    2.03278005023127
C        -0.00182763437673   -2.05103818819752    2.74135223852854
C         1.18585257832838   -1.67725993655759    0.44860065014907
C         2.32330039164542   -0.96304480398561   -0.39869682077258
C         3.54354185060907   -1.81992371756817   -0.69466728204759
N         4.34718217554215   -1.26510402316265   -1.65703064601290
N         3.82246832297024   -3.06219816383976   -0.43030888039396
C         0.61896693742552    0.49193343670137    2.20537730029530
N        -0.58933434214830    0.94633030172890    2.36084059433241
O         1.59871592719980    1.23321141859818    2.70006599985389
C         2.16064294327975    2.49406107696677    2.22217310150054
O         3.35940675298501    2.35151527282720    1.42086705132586
C         3.42809416272504    1.53922975766735    0.21116897967751
H         1.51616738973278    1.29002854912130   -1.10427513008698
H         0.72771691465677    1.93232775706929    0.45628322684119
H         0.25877038706434    0.46856532816706   -0.24068134411331
H         3.80260494486961    0.32752284788643    2.46252352837537
H         4.10403775041976   -0.83466126081762    1.23935469233166
H         2.42913091600426   -0.99683001613016    3.64651169852571
H         2.57231772846967   -2.36874980271955    2.55103817063668
H        -0.14459567305150   -3.05992700363509    2.35762683390467
H        -1.01732351787049   -1.62380033454287    2.67234870322864
H         0.19123024825604   -2.18993527624268    3.81076886901675
H         0.21908221957049   -1.59198252912431   -0.05943701074404
H         1.34058985944828   -2.75178545281439    0.64748876106054
H         1.92630480136254   -0.78220753555961   -1.41245725016794
H         4.26103043816313   -0.27289184831241   -1.76574356274763
H         5.21222769570047   -1.73844054165552   -1.89289771131180
H         3.30219076114062   -3.65270495692315    0.21525068186643
H        -1.40863959828434    0.38357059334009    2.13320248194780
H         2.62160776334546    2.89276697500747    3.13188826109353
H         1.27750781891476    3.09373649849039    1.98157700398466
H         4.49622110524079    1.38308238567041    0.04559054737493
H         3.06647497795302    2.24019286093573   -0.54913170674708
