38
 energy: -53.132400062825 gnorm: 0.153345825430 xtb: 6.4.1 (79825abcba525fcdf90b791dcacef51065a7a4e7)
C         1.08964491752970    1.00307378420325   -0.09328821065430
C         2.54392449997559    0.33099492342035    0.28921644935163
C         3.26503567790895   -0.31837033939986    1.70596939349150
C         2.40881933272771   -1.19845905423914    2.68083333333949
C         1.03203605245983   -1.16538316841211    2.06503297477606
C        -0.11783292341485   -1.96853514468333    2.65802319159216
C         1.16199355104388   -1.73687744491867    0.46960359787701
C         2.25523102768944   -0.99521348345887   -0.41162861157910
C         3.49397071458437   -1.79032564256565   -0.79129938189094
N         4.46374339509019   -1.10395094281597   -1.47557757027683
N         3.84993429133876   -2.95270808311082   -0.32968464365519
C         0.62892188290139    0.39915970047780    2.35629472931895
N        -0.54319165593494    0.95757821753331    2.28589603312149
O         1.68901491897135    1.10841748345383    2.71304986938082
C         2.21262471008302    2.40324026974509    2.28508700549459
O         3.34659044771561    2.30492021156880    1.38848216065267
C         3.47086182437420    1.51802672323834    0.16649590227389
H         1.10291615132794    1.30092341370273   -1.14652514049618
H         0.82898985235671    1.92229359841447    0.45428654213449
H         0.23279992576161    0.34066661726153   -0.03361855042339
H         3.84715002129675    0.44471213014529    2.22903083596103
H         3.98453982009386   -0.97902518421856    1.19594174058716
H         2.35635443649129   -0.78488207361995    3.69233156578857
H         2.83352849018251   -2.21024562971967    2.69995894897138
H        -0.25027970544261   -3.01215257472613    2.37730079246958
H        -1.10110456183965   -1.48677691400030    2.51798225692114
H        -0.07716784498283   -2.00056937532209    3.75234300415466
H         0.15256193152012   -1.70591816115967    0.04521136806266
H         1.33159874682984   -2.82176801226261    0.58074195341186
H         1.81954071828489   -0.81341906996408   -1.40919695398516
H         4.14633941675568   -0.34729446791450   -2.05042652066424
H         5.14938973934775   -1.66587304779156   -1.96763156009718
H         3.18535812270946   -3.43618421496563    0.27091798833733
H        -1.23223405459082    0.22817112706093    2.10433449762133
H         2.60610935881926    2.93196466383921    3.15953367249156
H         1.34969950701709    2.94135601382396    1.88108664444762
H         4.55564458505835    1.40425526330143    0.11176193211225
H         3.17714984966033    2.19300716634477   -0.64486685448628
