38
 energy: -53.131295109398 gnorm: 0.147952409831 xtb: 6.4.1 (79825abcba525fcdf90b791dcacef51065a7a4e7)
C         1.02666013314234    1.06186866657725   -0.04421708799478
C         2.44569381669067    0.31581957674002    0.33351706005118
C         3.30179101470041   -0.34438187333502    1.66771986788774
C         2.39264025287995   -1.21847401739208    2.59907914590898
C         1.01729197950903   -1.09164687159479    1.99231040659078
C        -0.03959116124796   -1.98761590707197    2.62407512894595
C         1.21800741995107   -1.71620052973939    0.42433860340056
C         2.28116170243192   -0.96386034260483   -0.48422678932245
C         3.48552312800011   -1.84893957825196   -0.76167515326000
N         4.48833595274268   -1.14263785090416   -1.37430085016488
N         3.65322953700848   -3.10516842589469   -0.47065139441157
C         0.66388817251940    0.44657651795948    2.44408837142464
N        -0.52414741395111    0.97491289755628    2.45242214595006
O         1.68305202459163    1.19437744190490    2.83933116117451
C         2.18963689152352    2.45126548747636    2.29390502715968
O         3.25680875540022    2.33246731075913    1.32103475054703
C         3.37931012291448    1.48777609219239    0.13807857068290
H         1.27550376011960    1.15519056264853   -1.10608640204389
H         0.93132311275105    2.08270298588763    0.35771871294670
H         0.11277327175861    0.50179690053089    0.12208831459519
H         3.76045515373604    0.47856900505837    2.22190783526685
H         4.10816587704712   -0.88729491369762    1.14879381331324
H         2.30862444596600   -0.96923705362194    3.66103462604649
H         2.84519529393368   -2.21690215294132    2.54624993322716
H         0.35969011383462   -2.99719592666089    2.70658094730986
H        -0.88840680448155   -2.06071493214026    1.92215340446133
H        -0.33237470777056   -1.64773975421014    3.62356384158783
H         0.21147505679799   -1.71099785490760   -0.00796334926576
H         1.48999155000151   -2.77697218651134    0.56179162741860
H         1.88391522806233   -0.83077055997310   -1.50525578390692
H         4.46803629498821   -0.18111895736317   -1.65500525184390
H         5.32902310817159   -1.69434737926262   -1.50409374723188
H         2.87990514983420   -3.61814174996292   -0.05236687601117
H        -1.29092362490276    0.39593585299830    2.11092758882443
H         2.62880084803227    2.91506584487667    3.18332105740421
H         1.46466475916131    3.19727934851072    1.95434138495808
H         4.42378998236294    1.16885967275063    0.14497433035587
H         3.19809183222820    1.96103261797366   -0.83319021213850
