38
 energy: -53.127260478443 gnorm: 0.156190392717 xtb: 6.4.1 (79825abcba525fcdf90b791dcacef51065a7a4e7)
C         1.12574455691838    1.10375373041394   -0.16346183710791
C         2.48534949005706    0.31748886720256    0.33271443336685
C         3.17858667929846   -0.33130440710182    1.76357255488590
C         2.30774366078183   -1.24007969478283    2.69833572786846
C         0.94984815398447   -1.11767604238815    2.05260092468483
C        -0.08942222643765   -1.99960421148413    2.73157730837844
C         1.09323620834980   -1.68268189920058    0.45601149604245
C         2.24238154264712   -0.99988721482746   -0.40134504275473
C         3.53085854008721   -1.73011121399414   -0.74402445247742
N         4.47604880347466   -0.94894795712751   -1.35738017594174
N         3.83019376378988   -2.98202361958398   -0.55951181184768
C         0.60618436300249    0.48048158081847    2.20398204690181
N        -0.63834577836947    0.84784846588081    2.28658758876060
O         1.56805423495073    1.20076678706221    2.76086053085030
C         2.25414160983346    2.38506030015791    2.25035249335808
O         3.45793940454660    2.20327554436011    1.46468682268409
C         3.51059089312032    1.42306900765804    0.23326458039201
H         1.27919790916597    1.38624898592441   -1.20981123199434
H         1.00036059258265    2.06383691921751    0.36119364143549
H         0.19984662909572    0.54046240027639   -0.20754089047366
H         3.89108361489313    0.34980785757344    2.23599125789323
H         3.77832384176129   -1.03481470399292    1.16384941517094
H         2.29902588779365   -0.95120954529684    3.75351589889227
H         2.75951925486305   -2.23835595660512    2.63669930496458
H         0.42142334402511   -2.88211964605608    3.11326811764506
H        -0.95920013803518   -2.25159317175355    2.10029804006701
H        -0.55380647349116   -1.62238370876960    3.64932871807710
H         0.14934710431223   -1.55030045173669   -0.08395882519777
H         1.27219309517711   -2.76953453726729    0.52551673091685
H         1.91848889679739   -0.78084764921617   -1.43339788741131
H         4.25710060421516   -0.35984459182070   -2.13760099595243
H         5.31988810531883   -1.46910266333574   -1.57035624192839
H         3.14364828557540   -3.45554454871691    0.02406972685162
H        -1.30067344426864    0.10460646505694    2.06592469847233
H         2.76123732165147    2.73450015554215    3.15577082763311
H         1.63128347137142    3.17967133771536    1.82837407566122
H         4.50524833998510    0.97441080338493    0.27860535734750
H         3.37366235725268    2.07477452731252   -0.63662354008293
