38
 energy: -53.134039306111 gnorm: 0.146004073420 xtb: 6.4.1 (79825abcba525fcdf90b791dcacef51065a7a4e7)
C         1.19451222580062    1.07670189948597   -0.10428654044374
C         2.60398594563748    0.32792155429842    0.30270329243971
C         3.26265031402526   -0.47578958146088    1.66984451547403
C         2.30658041426829   -1.32512720400791    2.57680549073964
C         0.92324112070938   -1.11515294415847    2.01278466644154
C        -0.20323666354549   -1.91247967740094    2.65637383233299
C         1.18534598382283   -1.64967618100393    0.42078106349471
C         2.28525528348575   -0.94375686537751   -0.48126175622309
C         3.50668283944723   -1.79622986663584   -0.78496180225076
N         4.35185260829766   -1.22948020913047   -1.70381369137988
N         3.91303188186148   -2.96274298722660   -0.37868758388391
C         0.58455782500761    0.45771167537219    2.33915763324056
N        -0.58215629132034    0.97913548883547    2.57901743778955
O         1.68033412290730    1.09222542758224    2.72746765345262
C         2.19189712767735    2.39481556434411    2.30860288331376
O         3.34481108551255    2.38659250513380    1.43101120669981
C         3.55163748281896    1.50480038761835    0.28752502929214
H         1.19114364421376    1.35252922257743   -1.16358182243910
H         1.04329195953374    2.08894477025716    0.30221196780504
H         0.27909609804366    0.51639600198993    0.05254990832644
H         3.83133759786399    0.21539589849341    2.29722210310819
H         3.99978603778254   -1.15239313523423    1.20819769561860
H         2.38332001763930   -1.09373006057848    3.64333891556633
H         2.58410602689898   -2.37667563241115    2.42956022174682
H         0.08943304124053   -2.96092548135221    2.63207567203073
H        -1.17457842965817   -1.83383067161389    2.13788075643419
H        -0.35783822315646   -1.54598644080180    3.67715625566599
H         0.24031226680030   -1.57139308689546   -0.12767354954941
H         1.33626467787516   -2.70255901881730    0.71534257189949
H         1.79907640462521   -0.82667973864634   -1.46510161865079
H         4.14770117613044   -0.36264739752010   -2.16277848650376
H         5.27936259199243   -1.63780988983544   -1.73506409510139
H         3.35292429644987   -3.37190385303205    0.36629634255647
H        -1.45625576632569    0.54985296936414    2.27661814380656
H         2.51524986666865    2.82764600189588    3.26104051652814
H         1.33421952743751    2.95666966207744    1.92632830286863
H         4.60280346560051    1.25317098771688    0.44381357242387
H         3.48377078007549    2.06908373777404   -0.64903957022834
