38
 energy: -53.129860895674 gnorm: 0.150762698543 xtb: 6.4.1 (79825abcba525fcdf90b791dcacef51065a7a4e7)
C         1.28650426551869    1.24373006811892   -0.08584622855975
C         2.63312303292667    0.42396714799965    0.39116062059906
C         3.37248585933508   -0.32426124913812    1.74849709833927
C         2.46483837045111   -1.26545782502034    2.61356778218742
C         1.06013849993394   -1.20875394523422    2.06635738829886
C         0.06614899826389   -2.17822351907107    2.69165952612897
C         1.12214554022498   -1.49469679627513    0.39205712460509
C         2.33412923176635   -0.84612395148093   -0.40308601816183
C         3.44577695677668   -1.84000410962110   -0.69850229508341
N         4.06339411906442   -1.55914521355249   -1.88991877180543
N         3.77509962918020   -2.91455099247788   -0.04441765317112
C         0.57565394506178    0.34545226736233    2.27812752590084
N        -0.58129401305511    0.84550005805435    1.95865767585457
O         1.53290861694004    1.09522944106978    2.80311871929308
C         2.05301622725377    2.38620864769987    2.35955786929705
O         3.24839647609941    2.37522537383318    1.54078391143492
C         3.52760812473916    1.63930546843342    0.31263168360386
H         1.54052058816781    1.55179565069308   -1.10504682865006
H         1.04991604599241    2.21911692787944    0.36735429833749
H         0.33287016130019    0.72812234426282   -0.12131062757746
H         3.87923550364338    0.41916514068919    2.36919607968756
H         4.29161085728773   -0.82638128620427    1.40591290773186
H         2.53826820509902   -0.92036874610429    3.64915879089007
H         2.85829229525403   -2.28993869559621    2.60415104635550
H         0.40134313852726   -3.18250241660413    2.43758601623841
H        -0.96911861612180   -1.98163622830039    2.36287392531380
H         0.18354431241499   -1.98852898896820    3.76424985974581
H         0.14145560991095   -1.27216455166988   -0.04239205853708
H         1.15568115145274   -2.59786231476654    0.39458866234652
H         1.81408612886317   -0.69485820962414   -1.36469492304971
H         3.70393152704370   -0.78638677042927   -2.41656537899645
H         4.82990813711054   -2.14311073821429   -2.20523608305102
H         3.24563530605482   -3.12074851771897    0.80014393775448
H        -1.28666464692090    0.17479685634371    1.65470340617293
H         2.35596407890008    2.93091748099719    3.25986421308621
H         1.21669800281309    2.97694604882160    1.97351914496261
H         4.60069018952215    1.47224115581222    0.42786096317818
H         3.43919648133373    2.19845120202874   -0.62529915837012
