38
 energy: -53.125866025399 gnorm: 0.153728293921 xtb: 6.4.1 (79825abcba525fcdf90b791dcacef51065a7a4e7)
C         1.15633664555085    1.10306602542960   -0.04535851692009
C         2.55743185073741    0.30369256581692    0.28760274112942
C         3.31918477063596   -0.31472780610723    1.69691257010223
C         2.46271832390121   -1.34069592920356    2.51659354187651
C         1.04285494603781   -1.12313610274021    2.05562502875643
C         0.03191508388536   -1.99927726135450    2.78313199737465
C         1.09873825844964   -1.57332414007607    0.41760876188214
C         2.26761621003228   -0.98395500578969   -0.48137519266657
C         3.48542564765829   -1.85389540178498   -0.74778292770680
N         4.54824643630134   -1.21373193953477   -1.33122838864567
N         3.56972046960106   -3.14928454901880   -0.67167459361823
C         0.60944662907112    0.42754355874589    2.37606000860609
N        -0.59634270309500    0.91324297830931    2.34767877898893
O         1.54502489371260    1.21053284434945    2.89155891950026
C         2.11020545873946    2.43963234926740    2.34040487539620
O         3.16299009096243    2.35894023537818    1.34814551039788
C         3.45524293711984    1.51553587524700    0.19438969012634
H         1.41862898470346    1.63654239462440   -0.96449085445541
H         1.00600519563359    1.97868414997281    0.60536230874945
H         0.23437943947267    0.54420547910603   -0.16450908551081
H         3.64595720924482    0.53295009538769    2.30470133282894
H         4.24834550507894   -0.74586920254524    1.29064091903397
H         2.54051080920184   -1.18144619916967    3.59618374312585
H         2.84024653928273   -2.35829040065008    2.35402153526103
H         0.43827982717192   -3.00388811456846    2.88853259709650
H        -0.87251101460863   -1.93033693475089    2.15401655802386
H        -0.14172871905606   -1.53716583216505    3.76114863737542
H         0.15370409857633   -1.41671366412073   -0.11380728745254
H         1.22512929641956   -2.66923104997002    0.45105352423377
H         1.85491842435617   -0.72232498444490   -1.47094484512379
H         4.49463255295611   -0.37544829313351   -1.87724275556034
H         5.33003111132918   -1.82035712688472   -1.55214259765980
H         2.92345048222874   -3.74310788045633   -0.15607483077760
H        -1.31336884270700    0.27058373327439    2.01205798073164
H         2.51703992510286    2.96423397611561    3.21121798378870
H         1.32654161646290    3.12524711026997    2.00391101009602
H         4.49357263232573    1.17789544840696    0.17064568027034
H         3.36080152734957    1.96286985391554   -0.80117445722290
