38
 energy: -53.128056905913 gnorm: 0.161702709336 xtb: 6.4.1 (79825abcba525fcdf90b791dcacef51065a7a4e7)
C         1.06003021364268    1.10126410034938   -0.16099089150734
C         2.45642130027316    0.37128023310456    0.31874278566582
C         3.31410712567798   -0.31267175099363    1.63989765599543
C         2.51826913752113   -1.33678878796288    2.52072026506134
C         1.09575050004441   -1.13738692036875    2.05972579159634
C         0.08544582339349   -2.01491640829178    2.78644141486438
C         1.10613919061062   -1.56994880747397    0.41604947591480
C         2.26355193324461   -0.92779750061788   -0.46135651363324
C         3.45294664584575   -1.85395180659969   -0.65733521282555
N         4.62178159244615   -1.32662036109761   -1.14267254140509
N         3.45518122205684   -3.15384086857496   -0.69218627583541
C         0.75508382555622    0.44072053705432    2.35747043451809
N        -0.46015910877520    0.86763843736734    2.17981043607418
O         1.66408619840720    1.22568040610137    2.91574522690627
C         2.10898463718557    2.47320937343156    2.29961023874578
O         3.20971315168954    2.34704134115320    1.36584167188362
C         3.31613597280257    1.59775003365762    0.11879240343476
H         1.25681302037789    1.34342439992530   -1.21019700968610
H         0.82713683700129    2.00927217377853    0.41695915338275
H         0.19165469612913    0.46019766634588   -0.05382349161128
H         3.57628990761532    0.49111013742888    2.33267475324763
H         4.13741210647948   -0.74556116535100    1.04908897209590
H         2.48496046418104   -0.92229313161376    3.53265457551835
H         2.93855482702035   -2.35036767557542    2.49896026512700
H         0.27558307549768   -3.08298245708604    2.69388171926300
H        -0.96211703928035   -1.90135799221780    2.45743974669912
H         0.26399769101480   -1.77275773228475    3.83986160757047
H         0.12322984550701   -1.49245614012232   -0.06134295405328
H         1.19841143511378   -2.66858115291884    0.46702017078529
H         1.81992574356383   -0.80248764800019   -1.46410827299002
H         4.79836093190485   -0.41943348370223   -0.75594611625978
H         5.36353497926854   -1.94958064024192   -1.44218362335918
H         2.55856314451368   -3.57486560395066   -0.45777558637211
H        -1.09331511220826    0.21471747659368    1.71873950019902
H         2.54856809629341    3.00747641245487    3.14835150863940
H         1.24480161200810    2.99739915743244    1.88028039370291
H         4.38688651883581    1.39502300289072    0.04745926679183
H         2.98183707415147    2.31955966069964   -0.63447378804170
