38
 energy: -53.124338830211 gnorm: 0.156186512593 xtb: 6.4.1 (79825abcba525fcdf90b791dcacef51065a7a4e7)
C         1.09941928981758    1.05002199275915   -0.14840470094570
C         2.52630432614253    0.36469768113228    0.30685193185284
C         3.29649693859510   -0.35445665521843    1.66275969672741
C         2.38218553527050   -1.30891937616221    2.50600215975009
C         0.97012003401078   -1.08718110701351    2.02357139204409
C         0.04490130610928   -2.12083247023318    2.65160346488069
C         1.08200055721155   -1.56233238336864    0.39550397073575
C         2.33064720832809   -0.97877537156496   -0.39325870746741
C         3.55145117447092   -1.86331957069022   -0.58831884055683
N         4.62467544127260   -1.25578142117221   -1.18739560820316
N         3.60397277829558   -3.15918825294628   -0.49399495658918
C         0.63575062746103    0.45984952336046    2.45948661621680
N        -0.54071865158688    1.00355977576825    2.56406444767258
O         1.73226377712428    1.15737389418347    2.71490137912963
C         2.18947611783422    2.45778332558257    2.23139580660273
O         3.35395710142437    2.39954884885791    1.37114110196073
C         3.27432948893363    1.66342606146380    0.11428874806715
H         1.08243894415057    1.07788006899921   -1.24254096106959
H         0.94300405150677    2.08920316045724    0.18080801947732
H         0.20382015052836    0.49740964060359    0.11436674752366
H         3.58679662127225    0.42453932149358    2.37243328604670
H         4.17517766587739   -0.71495503041481    1.10397500081476
H         2.47145520779631   -0.93437664615419    3.53005090521345
H         2.69562724564036   -2.34637442145002    2.33309451820416
H         0.60754643874370   -2.97233448132785    3.03089139521372
H        -0.79278434643456   -2.49928932558849    2.04039260654341
H        -0.54845976581398   -1.71864079871899    3.48008411103890
H         0.12242530039323   -1.39978953254893   -0.10730272242662
H         1.17674327122053   -2.66107649178148    0.43898276104620
H         1.93030718443495   -0.83370420850532   -1.41144340143545
H         4.52774335586557   -0.43961560136635   -1.76028577177179
H         5.30149270388980   -1.90237395203047   -1.57703772479332
H         2.84065696849383   -3.64140443167454   -0.02394102102882
H        -1.22462010579051    0.33040602772756    2.21921441059659
H         2.56848133881931    2.94325309856879    3.13677460532888
H         1.36803200685497    3.06276354477693    1.83560135282679
H         4.33460412567071    1.51830971288593   -0.10354682680000
H         2.90164038977537    2.36623594178190   -0.63892831890478
