38
 energy: -53.126999622178 gnorm: 0.159283217557 xtb: 6.4.1 (79825abcba525fcdf90b791dcacef51065a7a4e7)
C         1.05065483942805    1.19368448358303   -0.09607353361538
C         2.42941309486709    0.39057710189762    0.31254986209466
C         3.25038945060851   -0.34972466414398    1.62663379331449
C         2.40231803785840   -1.40974409811643    2.41095257316366
C         0.98000961275465   -1.10294187451914    2.01252136498407
C        -0.04191800391553   -1.99617401535016    2.70294834311160
C         1.10577049936979   -1.61562863340457    0.39690198034082
C         2.21946269016446   -0.89875605988792   -0.47921857482770
C         3.40035150653189   -1.80021336397378   -0.80125202094149
N         4.45904625362652   -1.16599756004774   -1.39853055558278
N         3.44221372776955   -3.09945051003468   -0.83533338462892
C         0.75147406962467    0.45970997071119    2.46087331191313
N        -0.43532487420860    0.96803263871237    2.61499555833677
O         1.78324552121536    1.12150928334080    2.96245817582802
C         2.29875536119814    2.34725132102219    2.35773384370873
O         3.44222409668839    2.27594694780382    1.47069365377865
C         3.42961098232337    1.51972091709561    0.22335318610334
H         1.31357242386770    1.34113238205245   -1.14837198110699
H         0.76388795418143    2.15102932976470    0.36652761666794
H         0.17906471270675    0.55141587659803   -0.03012852246871
H         3.76573019952660    0.33488813282864    2.30521647821324
H         4.02137596915022   -0.91356181335617    1.07713703061217
H         2.68218129504080   -1.41329323071097    3.46858724984693
H         2.49699451121127   -2.45565625103101    2.09226798070678
H         0.36591446088254   -2.99171085338767    2.87047040211608
H        -0.98371376216116   -1.95532825682028    2.12859832748193
H        -0.29756654483700   -1.60346495383216    3.69322057908217
H         0.10405875422223   -1.45144837185589   -0.01496918157820
H         1.34021013377147   -2.69059167484062    0.48406685125102
H         1.70889327408044   -0.70197677737891   -1.43766242951320
H         4.52689331582647   -0.18894654171815   -1.18759525164099
H         5.34505757656945   -1.65463919700109   -1.46332075015020
H         2.68409832350347   -3.65634239179654   -0.44640327207939
H        -1.20593119644722    0.34620836999272    2.37152238958769
H         2.81704044246271    2.81572801844549    3.20091044855961
H         1.49898166155060    2.98397573173583    1.96738938474725
H         4.46659547300600    1.38114076481307   -0.08993914762113
H         3.21982617809394    2.20273188250487   -0.60710524183455
