38
 energy: -53.122420251466 gnorm: 0.158570167933 xtb: 6.4.1 (79825abcba525fcdf90b791dcacef51065a7a4e7)
C         1.26717598667001    1.24990754607311   -0.24678760317480
C         2.57220536192740    0.42938045547819    0.33335247806989
C         3.27095960194671   -0.28686360315784    1.72891774902803
C         2.41442963521757   -1.30894499739336    2.55337411834929
C         0.99298258204258   -1.19750874357497    2.06051863798775
C         0.07544401525497   -2.12259422582954    2.84869943039408
C         1.10565371544539   -1.58505669325470    0.40945796448160
C         2.29116771103796   -0.88889274528818   -0.38534775567515
C         3.45760157277897   -1.80014103536818   -0.73159594873616
N         4.15922756722325   -1.47832133865791   -1.86471507369854
N         3.75803839812020   -2.95269745914844   -0.20978893539227
C         0.59474946824830    0.38365571588456    2.25145880077496
N        -0.58957686770464    0.88475144851638    2.05933501194018
O         1.51389214212690    1.15581587134857    2.81097957490472
C         2.07169894665897    2.42852542635542    2.36048271821597
O         3.33207490679974    2.35609847338493    1.64939050165668
C         3.49715978431807    1.62244817278805    0.39943075907650
H         1.40702019545592    1.28131556790217   -1.33198606006999
H         1.09038308837578    2.27804368300427    0.10595109262715
H         0.35242550924660    0.67546235696744   -0.14793747119983
H         3.74966881401941    0.41109494406150    2.42060885598934
H         4.19859311193930   -0.80019889353324    1.42848109801831
H         2.50947431075609   -1.07326775877341    3.61749342891344
H         2.80395877966706   -2.32841259712931    2.43757867382498
H         0.39429248869157   -3.13793705514053    2.61870127317089
H        -1.01474600507728   -2.06204605395538    2.68638739606937
H         0.40164951257463   -2.00676208354750    3.88811685550771
H         0.18043200263566   -1.46050337234753   -0.16366565195765
H         1.41411341821417   -2.63527270882121    0.55089398385187
H         1.90457637023774   -0.67256884715675   -1.39617363205660
H         3.86347255698036   -0.71008480148341   -2.43573802650965
H         4.92763255375009   -2.08667950787244   -2.12440449996205
H         3.23023639660638   -3.22759312227019    0.61603888921144
H        -1.26326805153483    0.27853396017916    1.59198155053485
H         2.26370347707125    2.94821804966461    3.30498812537153
H         1.31551256561710    3.05357068017329    1.87579175300166
H         4.54425575302529    1.32236025097273    0.47836530666219
H         3.53611714900215    2.23863860049280   -0.50553692652469
