38
 energy: -53.130702574359 gnorm: 0.151382686059 xtb: 6.4.1 (79825abcba525fcdf90b791dcacef51065a7a4e7)
C         1.15334810757516    1.20573950306639   -0.10499263330486
C         2.52672228612647    0.39352198995808    0.30375544657993
C         3.30633010230335   -0.40078876628605    1.61148154801763
C         2.42959209324753   -1.37396994742855    2.47303312989251
C         0.99636063135005   -1.19077701983101    2.03930023232358
C        -0.09417458846317   -2.03530988230356    2.68458027025713
C         1.05642121102455   -1.55115338221049    0.37935711024383
C         2.22407837670180   -0.88887954895731   -0.46903781546164
C         3.36524004935944   -1.82375709900776   -0.83589371094300
N         4.44437078278267   -1.17079759992700   -1.37341270645135
N         3.45601473175213   -3.11762491314113   -0.74317261922006
C         0.79433497321230    0.37403435860534    2.49281959663581
N        -0.36159887978738    0.96494456992647    2.56547923172617
O         1.84092140119537    1.08054651741291    2.89233867869756
C         2.17035070048632    2.37780954946259    2.30712893420473
O         3.25693458795557    2.39512934413952    1.34875486434211
C         3.47554952405035    1.56208096801656    0.17141333703950
H         1.06355229078498    1.20084559007730   -1.19591486655070
H         1.28737700839572    2.23231059688078    0.27041686125659
H         0.26997162398878    0.74672605050422    0.32568091297629
H         3.74170659754791    0.37235214577946    2.24979626299126
H         4.12247405940626   -0.98811243451690    1.16066098100889
H         2.66445712111223   -1.23490255433671    3.53247913372521
H         2.75668582657942   -2.39351155029822    2.23220052276747
H        -0.20927705934164   -3.04645893237325    2.29752268291859
H        -1.09520169525537   -1.58397972244281    2.57156971035581
H         0.10610977894594   -2.19115171423757    3.75032657612732
H         0.06671846982936   -1.24353665013354    0.02456157385785
H         1.17295941377202   -2.64823730938882    0.40986799084234
H         1.67658000513586   -0.70334247257198   -1.40916513736559
H         4.52930020998376   -0.19587231020079   -1.15885900171815
H         5.26083436864550   -1.74914223504056   -1.53739192727501
H         2.63950118810167   -3.55773672907019   -0.32395740104332
H        -1.10154330120706    0.28322860816701    2.39957467265273
H         2.69261459845886    2.96161055081845    3.07227822984747
H         1.17287453481929    2.80650264597485    2.17042384718789
H         4.54081176634511    1.37123463203407    0.31799924670187
H         3.32606429377621    2.03873007517685   -0.80359160808683
