38
 energy: -53.128390770793 gnorm: 0.148095297243 xtb: 6.4.1 (79825abcba525fcdf90b791dcacef51065a7a4e7)
C         1.15109484929084    1.11818301091067   -0.10190874365501
C         2.52413509500457    0.31252477807066    0.32070718047441
C         3.20959668374251   -0.36600543832203    1.74148325491703
C         2.34616731068735   -1.41524764990843    2.52353362952648
C         0.94129826275150   -1.13508965179324    2.05057405441134
C        -0.17931980655443   -1.91311315450354    2.72717122991910
C         1.13204985168889   -1.69271817514753    0.45634890862966
C         2.28676618036813   -1.01468552444249   -0.39729372200765
C         3.57568890203297   -1.74878674941577   -0.72986378057614
N         4.46408958651139   -1.14752341580871   -1.58369779903370
N         3.91086151992175   -2.96188401296590   -0.40277739009060
C         0.59921070243902    0.43643334282638    2.37984658405927
N        -0.60524209253447    0.88121855581129    2.58502197282821
O         1.65704723422464    1.14517775981643    2.74423825681861
C         2.19031777412227    2.39699049115227    2.21275647464254
O         3.33684897014629    2.27483678425652    1.33526569762926
C         3.46112049782465    1.48056235116914    0.11806404015956
H         1.33412825102242    1.03173859019966   -1.17765253493463
H         1.10948920984583    2.18838156163405    0.15438849426497
H         0.23781265165736    0.61021542691519    0.18862804750212
H         3.52931048600508    0.49794994953795    2.32979390272702
H         4.16987326933650   -0.71911979563786    1.33226647952082
H         2.44605524409751   -1.06702862662277    3.55585774470333
H         2.76857604197095   -2.42488610318883    2.44194449444134
H         0.16032189105690   -2.93891292783098    2.86082341945034
H        -1.12568519512677   -1.83458925457960    2.16436387198490
H        -0.44100089307649   -1.43513722554124    3.67758046679579
H         0.20047573360891   -1.41026470183013   -0.04605445582049
H         1.22995878505392   -2.78526405386870    0.57826093981510
H         1.80739415320947   -0.82307755681242   -1.37274577244707
H         4.38797613838118   -0.32165863157272   -2.14572956804157
H         5.35647887287417   -1.62848359260157   -1.56628635489016
H         3.30255535142755   -3.50641327673416    0.20515817962078
H        -1.35757087116524    0.21827308663005    2.39986412362608
H         2.62242321186639    2.96225047567442    3.04510415892451
H         1.37239238881298    2.99385709922658    1.79781905023807
H         4.53626617249913    1.29249473734826    0.08083835263845
H         3.14307567564513    2.03521455738088   -0.77153321484721
