38
 energy: -53.127119766902 gnorm: 0.150988762001 xtb: 6.4.1 (79825abcba525fcdf90b791dcacef51065a7a4e7)
C         1.09299896125804    1.18205755728805    0.01697413670749
C         2.52019172751811    0.41677199954758    0.31761968328887
C         3.23906470184000   -0.40024609801445    1.64599032960240
C         2.38103428333193   -1.50051002021961    2.36099060236085
C         0.98214145897475   -1.09074383937364    1.97236890178221
C        -0.06243564080245   -2.07017171345531    2.49050871471447
C         1.02238693714891   -1.51028150308955    0.32577910014214
C         2.22011879077400   -0.85011294339562   -0.48132666971996
C         3.40382593129287   -1.77497633242139   -0.71433825560326
N         4.24303828094082   -1.26840695455291   -1.67293933605071
N         3.66755191609498   -2.93594300965744   -0.19133141081479
C         0.70784772719662    0.43623008806188    2.50925094129004
N        -0.48868824548766    0.90130175508735    2.71576325440999
O         1.76096936624459    1.13781394141495    2.90018947108801
C         2.32141797705362    2.36896598973986    2.34878451538331
O         3.43013841460150    2.32448917078779    1.41700870657573
C         3.57100937362208    1.49850036397987    0.22294295505108
H         1.18346806407709    1.37654330807136   -1.05642662656147
H         0.89208948801222    2.16206818393373    0.47736396540977
H         0.29124945241636    0.47520013781655    0.20157473793405
H         3.63091746673944    0.27707626798029    2.40916204334347
H         4.11995302621369   -0.77018155189515    1.09693408417019
H         2.40356286207562   -1.33661489673728    3.44245165827033
H         2.68500889692656   -2.48989525921705    1.99606319703059
H         0.16222324352297   -3.11072555847079    2.26190285450606
H        -1.00502477451385   -1.83474226820469    1.96646265382494
H        -0.26460068602121   -1.81868407543781    3.53745616079789
H         0.09348599060059   -1.38516707891565   -0.24123839291115
H         1.13397836368975   -2.60556949460010    0.24834025316619
H         1.99028625739259   -0.60810798318438   -1.53329076782469
H         4.28418586354497   -0.29154668839299   -1.89151774002062
H         5.03996320832981   -1.85438564094353   -1.89547951591457
H         2.93642451366375   -3.35676449296624    0.37831424886377
H        -1.22561696011151    0.24790987496706    2.45157803446103
H         2.75944127354971    2.97217447938786    3.15085167701941
H         1.50340210418685    3.02326875045145    2.03229965369147
H         4.57777178751380    1.12296520879041    0.41812542464639
H         3.54236655984959    2.09373447806819   -0.69632348465376
