38
 energy: -53.128931077329 gnorm: 0.163327723466 xtb: 6.4.1 (79825abcba525fcdf90b791dcacef51065a7a4e7)
C         1.05960513763897    1.03262334760992   -0.03241071118648
C         2.51096846124579    0.35701350268530    0.35491956466015
C         3.29044506167140   -0.40898618975725    1.67950484970864
C         2.36814376621210   -1.29318283765139    2.58811856081285
C         0.96903727414194   -1.10878224002725    2.05488903859941
C        -0.11671296500647   -2.03417118269386    2.58751539217975
C         1.17131553970111   -1.64728329994944    0.45551740049979
C         2.24791598958025   -0.91303332842831   -0.45201346772939
C         3.48524924928991   -1.75327948737452   -0.72371558645527
N         4.29022654982470   -1.25313071946004   -1.71450752737624
N         3.68901867327575   -3.00812136047165   -0.45025432898766
C         0.72625758924203    0.47723526009419    2.40235885759118
N        -0.46395624108559    1.00060301266546    2.39165537106456
O         1.79777378336762    1.10241963564055    2.86616440139526
C         2.23269222294118    2.38521314591076    2.31919801750656
O         3.40825698215929    2.32018096021707    1.47464861952767
C         3.44475693185221    1.53971679149436    0.24280504568717
H         1.20696162684019    1.34055826351668   -1.07243989842173
H         0.70244832559673    1.92854559529076    0.49910276169500
H         0.25632134199075    0.31268674157504    0.08140268901057
H         3.69741774106185    0.44229441687424    2.23126549308506
H         4.14788279216640   -0.83695782344335    1.13551951178633
H         2.43194413395461   -0.97772094366842    3.63374777771112
H         2.71306942412031   -2.32319633313949    2.43142069942639
H        -0.99273128241046   -1.51506413771976    2.97300771660432
H         0.27180733932512   -2.52877283218248    3.49467951457265
H        -0.46216589928931   -2.78284069632326    1.86614731092114
H         0.18016460500367   -1.63366564419629   -0.01080203789420
H         1.54353089911208   -2.65635078477274    0.70319410191678
H         1.72843445245151   -0.64045696576518   -1.38681767241616
H         4.29408973694550   -0.26693758107023   -1.89095521632869
H         5.13836460426774   -1.76411218071585   -1.93255401983164
H         2.98235542653521   -3.48385910583964    0.10691245551997
H        -1.22032890419751    0.43687468741470    2.00449974720307
H         2.67928525152732    3.05391817422407    3.06245092057515
H         1.43315815598900    2.96913293831161    1.85314255104944
H         4.49584977126671    1.24380674160730    0.26109396470441
H         3.14978619443883    2.19840380044834   -0.58139064623113
