38
 energy: -53.126313402223 gnorm: 0.149365649460 xtb: 6.4.1 (79825abcba525fcdf90b791dcacef51065a7a4e7)
C         1.08414568715014    1.03880781132772   -0.15328659436897
C         2.46225831995363    0.31490569933385    0.38495148716211
C         3.24992053756683   -0.44413086501858    1.70870268365551
C         2.36934369716895   -1.33072201348952    2.65557271549962
C         1.00766631894721   -1.08335719909616    2.05517145248313
C         0.02205194161933   -1.96572870140416    2.80940881048757
C         1.15313847689226   -1.71243129318448    0.48291409683988
C         2.26991546078109   -0.99032407829664   -0.38494198926328
C         3.51677542883228   -1.77748748737599   -0.75445959248919
N         4.45073101597137   -1.10208739221640   -1.49700090419791
N         3.81082795928099   -3.01896806945867   -0.50308288443005
C         0.59112548115588    0.46482677216902    2.40836959844591
N        -0.54361933880100    1.05821017880152    2.18278661459510
O         1.61734288721741    1.18891146676317    2.82872333271323
C         2.15377759104460    2.42268628955791    2.25958101843150
O         3.33524160177149    2.26926576595763    1.43492938394706
C         3.39345202795689    1.49089174089066    0.20259801868589
H         1.24300178277684    1.10190023621016   -1.23448160477302
H         0.91554294483559    2.09258281093742    0.11851408188652
H         0.06891157343652    0.65879498188167   -0.11564346686643
H         3.79142602892593    0.33678004001265    2.24879082944887
H         4.01379461175041   -0.99883517750986    1.14030250145432
H         2.53673202867615   -0.97613596510787    3.67693310472499
H         2.70476064176438   -2.37556826651381    2.67130533784373
H        -0.02458282574895   -2.97884431161519    2.41329453399483
H        -1.02853946920589   -1.64365155206417    2.70429187885261
H         0.18838794363504   -2.04373212560214    3.88943820390195
H         0.19944958929696   -1.73806116174477   -0.05545385744947
H         1.48732680549730   -2.74433588575784    0.68686577850204
H         1.95631470250638   -0.75545379511562   -1.41669214222558
H         4.16745374082671   -0.28460098902253   -2.00216977369698
H         5.37465485053706   -1.48736315279807   -1.65797240577851
H         3.20180728897997   -3.64797725246795    0.01612366708946
H        -1.30334486824934    0.41499336860895    1.96172560305621
H         2.59407924152981    3.04093183427798    3.04884873914329
H         1.31135466936528    2.91930938656653    1.76854754180549
H         4.46687580001383    1.29888551074551    0.14269459513880
H         3.16499065014445    2.10771284473412   -0.67347959367983
