38
 energy: -53.127377583052 gnorm: 0.146726815283 xtb: 6.4.1 (79825abcba525fcdf90b791dcacef51065a7a4e7)
C         1.08123601735330    0.98689956957075   -0.07626604302662
C         2.53189114939997    0.34478262711807    0.36669495381912
C         3.29405673924361   -0.40417101607920    1.71095592284647
C         2.34210661926996   -1.32871192248070    2.54584356448171
C         0.95426335120647   -1.06890718571569    2.01459138779825
C        -0.12338226361495   -1.94386627514604    2.64070294666802
C         1.16185531688453   -1.61337752563581    0.41792386395367
C         2.34550886351368   -0.95609341492334   -0.41198318671353
C         3.53152940884018   -1.82235096655289   -0.80413413317939
N         4.57424984445816   -1.18156907902541   -1.42214593585809
N         3.64544677288649   -3.11765260268196   -0.81628629832113
C         0.68413030361537    0.48749953013064    2.46153108167622
N        -0.52566137308851    0.96291077025629    2.49355628519544
O         1.73581808991976    1.22205689898090    2.79091889927877
C         2.14198522731224    2.51341529061637    2.24200430352182
O         3.34605518287731    2.37366346058599    1.44819680134644
C         3.38390055825255    1.58433006493137    0.22205827780112
H         1.13777234824753    0.90884694153385   -1.16663753633033
H         0.92879229099420    1.99763635500512    0.33350987805230
H         0.16832075356628    0.46845151399680    0.19635897141056
H         3.77504670132314    0.38842114200648    2.28991323604527
H         4.02490932077748   -1.09826111130807    1.26556543608040
H         2.44407147476821   -1.15837750091438    3.62172298018787
H         2.80101426852888   -2.31440679222578    2.39662852365656
H         0.10911327592764   -3.00356723588011    2.54870152769900
H        -1.12415983007404   -1.69010202682722    2.25009631493644
H        -0.18315598269550   -1.66751589951256    3.69913257183119
H         0.20202524090049   -1.64315508665716   -0.10919941837110
H         1.36002813745310   -2.67013361042385    0.66712123064149
H         1.89899901188047   -0.85642635767528   -1.41633038466536
H         4.98737479364119   -0.41766764126412   -0.92263818391595
H         5.21489887679297   -1.95785373822794   -1.54435659732977
H         2.80376916093551   -3.57582253088313   -0.47307602411282
H        -1.24677921415750    0.24818686231876    2.39901787550022
H         2.30272095732958    3.21766013567588    3.06495013971052
H         1.32281793502568    2.96809676880201    1.67662438418777
H         4.44875695330652    1.37374302507481    0.10194433719487
H         3.05395083266744    2.13153434440374   -0.66781559432941
