38
 energy: -53.121381852661 gnorm: 0.152387140388 xtb: 6.4.1 (79825abcba525fcdf90b791dcacef51065a7a4e7)
C         1.15263682257650    1.29899102945646   -0.05120186912418
C         2.51682487950439    0.43839298715528    0.28240094228717
C         3.29879057708691   -0.36386192658901    1.58385480663838
C         2.43550692572765   -1.34130256547363    2.45412682592605
C         1.01557661717895   -1.12997546146126    1.99047281483964
C         0.06930520864842   -2.10544730590717    2.67743294838055
C         1.05554130347988   -1.45422627494189    0.32249387180939
C         2.24862698865765   -0.83263279882987   -0.52129040148861
C         3.36780123214898   -1.82824841818854   -0.78018758222418
N         4.46783047812916   -1.26119272402256   -1.37026333325378
N         3.39115794460621   -3.11064986504939   -0.56610318185451
C         0.60114700779558    0.40886352769583    2.38461930290553
N        -0.56223420930583    0.98930447751911    2.36819426123497
O         1.71700166778463    0.94731959172057    2.85264869026002
C         2.28563710587956    2.25176083712469    2.52253925286062
O         3.33491816798776    2.21680000770818    1.52392403111287
C         3.51247998203707    1.57368450927632    0.22670800753975
H         1.18140870207188    1.31784679224031   -1.14528376587319
H         1.22692788903529    2.36389509720505    0.21936124530766
H         0.29046209294354    0.94384847241616    0.50292407018701
H         3.77381448200124    0.41105695602867    2.19097773169167
H         4.10228420391337   -0.85952558016057    1.01552852388488
H         2.49679675735384   -1.27143685963359    3.54421374281172
H         2.71549899632589   -2.37536788381821    2.21586418514463
H         0.39713142158145   -3.14091481406453    2.60113376185318
H        -0.98067882177643   -2.03812143273256    2.34347738124302
H         0.07322474340013   -1.91549049220759    3.75637536305774
H         0.03940393970052   -1.23374691796391   -0.02228596680485
H         1.06365309270635   -2.55352748015242    0.22463551581470
H         1.91287433087246   -0.50686451927239   -1.52087181973197
H         4.61155195426084   -0.27244315060527   -1.44404698711135
H         5.15340739803363   -1.86889346219404   -1.80462329863493
H         2.54124122594325   -3.46214967821539   -0.12995684783229
H        -1.31256700401670    0.43394235778952    1.95788666474364
H         2.58471555909062    2.74087016804923    3.45547052600328
H         1.50356373620520    2.84781625042028    2.04243099213492
H         4.53584570829032    1.19343646439946    0.25547271823631
H         3.33768604162045    2.37325418328280   -0.50151603440815
