38
 energy: -53.127521679696 gnorm: 0.157743604715 xtb: 6.4.1 (79825abcba525fcdf90b791dcacef51065a7a4e7)
C         1.05169730172443    1.04623751697684   -0.06801395059994
C         2.46771628940562    0.30360533815635    0.32735494879217
C         3.20597813590604   -0.31121008820556    1.75067391734809
C         2.37714449533579   -1.30644060326499    2.63417450065027
C         1.00641019335868   -1.15267002522575    2.02320939381425
C        -0.05481055052977   -2.02826799361728    2.67591748427145
C         1.10759502647195   -1.61163924928163    0.38980852645958
C         2.23900833224544   -0.95365802721662   -0.50950701314258
C         3.49444106521363   -1.78657368104232   -0.71191593665182
N         4.40676919270870   -1.27318556100331   -1.59729491077020
N         3.88987908062820   -2.95552678912206   -0.30190551237720
C         0.68533419785366    0.41593167948961    2.38587682877660
N        -0.50076709793872    0.94840533129403    2.36935815892810
O         1.69065471971076    1.17401019349433    2.79668779748428
C         2.20896073097747    2.42399306339264    2.24642681068646
O         3.32782594303377    2.40227246667045    1.32603873499576
C         3.38469158994572    1.49608947448896    0.18433219522439
H         1.24484258340292    1.21678368279553   -1.13187835390557
H         1.09622636718091    2.09700930954743    0.25854391762572
H         0.10678744246361    0.52352414446261    0.03417773917014
H         3.61596317240462    0.47116037545285    2.39453256224540
H         4.04005693846291   -0.89248841490529    1.32557711616056
H         2.40253143273914   -1.13223794174893    3.71395970345908
H         2.63356087946420   -2.35166559152879    2.41920684247065
H         0.05939237192647   -3.03360606507523    2.27375133457535
H        -1.09002328413253   -1.70929711884045    2.46350811971097
H         0.12281660423457   -2.01565813322536    3.75689170858997
H         0.14911944279757   -1.41159994781529   -0.10144320330149
H         1.19437315774192   -2.69836280849948    0.56187439927425
H         1.89738927377777   -0.81355794341755   -1.54954846010357
H         4.37837178364070   -0.30000655174999   -1.83360364257767
H         5.30469926101037   -1.73518028903256   -1.68821766325858
H         3.38621204025553   -3.32114060577809    0.50356343086564
H        -1.16785508400511    0.25585149973477    2.03003305461711
H         2.62909179897999    2.86819233163571    3.15483944893870
H         1.29264059647209    2.95859924351290    1.97813892951297
H         4.43596936890258    1.22699668181105    0.06146034819061
H         3.06020997275061    2.06042127124046   -0.69681260069625
