38
 energy: -53.124700289243 gnorm: 0.155565611022 xtb: 6.4.1 (79825abcba525fcdf90b791dcacef51065a7a4e7)
C         1.10434310935536    1.10269131227813   -0.15639361828945
C         2.52337323260449    0.40884053889000    0.31035419713821
C         3.27965119514232   -0.33800549159780    1.65910552126833
C         2.41304065563787   -1.28632790565303    2.55782296979361
C         1.00546866203561   -1.15385144068379    2.03148906143580
C        -0.08760936535651   -1.99626651283699    2.67523314357166
C         1.13583956768962   -1.61302788930478    0.40021655450549
C         2.31053648964680   -0.91967807270378   -0.41289906978470
C         3.47709684907749   -1.85456893065165   -0.68848074290761
N         4.43272538790759   -1.18797503302789   -1.41113736339833
N         3.70443611340447   -3.07579456246132   -0.30396029695721
C         0.65759410528242    0.40554777409630    2.40883006515792
N        -0.54428471470975    0.89689005839587    2.47744082111625
O         1.73632706388240    1.09451123635731    2.74909853880594
C         2.12213152925931    2.41204525469523    2.24995476887947
O         3.26057902855885    2.36155496549909    1.35506181274614
C         3.48144727154842    1.56658214108877    0.15209440241202
H         1.19859869278990    1.28672072307140   -1.23131111316593
H         0.87613784107077    2.03661481433019    0.38068504183236
H         0.22987379344976    0.47127237181387   -0.04176116532467
H         3.85447943284339    0.41790889346236    2.20031821227255
H         4.08722371163711   -0.98536673785348    1.28091339406830
H         2.44753387396389   -1.02163111583834    3.61880034472283
H         2.84437627789383   -2.29091037031515    2.46180532996395
H         0.33774238310832   -2.99348792763278    2.77578118800415
H        -0.87186864263267   -2.18029134421927    1.92051609473553
H        -0.47962952981412   -1.50088279002354    3.57029227812906
H         0.15718241225633   -1.36453307644248   -0.02463630202349
H         1.21975988097836   -2.71330662898793    0.37902026994530
H         1.79185417339129   -0.75530610238004   -1.37309090717406
H         4.30136117829942   -0.37522121921281   -1.98201414393693
H         5.30926334214441   -1.67557273576601   -1.55917176138617
H         3.09374994363491   -3.66111906524411    0.26224796377249
H        -1.25954217190735    0.19449625804502    2.29081703214111
H         2.57049792747443    2.86261818165261    3.14157590192915
H         1.38728323355748    3.14902428896302    1.91189466651188
H         4.51585280197607    1.23802645005617    0.03064583736444
H         3.23088908055246    2.31239799038065   -0.61024027581893
