38
 energy: -53.129876115101 gnorm: 0.153881065018 xtb: 6.4.1 (79825abcba525fcdf90b791dcacef51065a7a4e7)
C         1.09716326878387    1.05857735775635    0.03521034318751
C         2.51643933589047    0.28339958076843    0.34775438154009
C         3.30923338370874   -0.37323672700518    1.72222586092920
C         2.37799181108060   -1.29822605668104    2.57966749835820
C         1.01280692856195   -1.08692278583447    1.97348479602649
C        -0.07934104498399   -1.97441888355816    2.55525162915564
C         1.10899941412275   -1.56536071035292    0.34537739296810
C         2.32175012299622   -0.97645346067906   -0.49380542712797
C         3.55296930857016   -1.82199634596394   -0.77662302429354
N         4.44618788575771   -1.28376471705149   -1.66672032502703
N         3.87719866734628   -3.00131456687453   -0.33501797096307
C         0.65608597250874    0.45791184007395    2.39935444524882
N        -0.56505492908048    0.89336621518386    2.49850963896334
O         1.61024117364745    1.23500389043801    2.88908280216661
C         2.16409484607164    2.43853151598200    2.27373507101132
O         3.32223237831840    2.38146323847088    1.40488178264192
C         3.43006005416272    1.48379002822883    0.26013239868446
H         1.08749845576725    1.30773561782413   -1.03063453854585
H         1.05567427130877    1.99236136319538    0.61750780925300
H         0.25987465824866    0.43730046908307    0.33435892825840
H         3.77226407187483    0.32167956524012    2.42751953481989
H         4.13802857509521   -0.94811669834135    1.27850208870207
H         2.29140123580641   -0.95612287398556    3.61523239293538
H         2.67631108143859   -2.35412340654325    2.55638373716199
H         0.24122455708010   -3.01441430707964    2.52160968979063
H        -0.97168142592413   -1.89065942142574    1.91086155138645
H        -0.33311987967384   -1.67163052158378    3.57707901509272
H         0.13289373641325   -1.39246744386124   -0.12082541754047
H         1.22003147764964   -2.64458452040951    0.54799294954049
H         1.96414950739485   -0.74743892757966   -1.51247710951135
H         4.14176861572040   -0.69873478139656   -2.42090498367667
H         5.18063278227831   -1.96190846612032   -1.83611998040376
H         3.17819679699133   -3.26743319923001    0.35542495878819
H        -1.22751007237575    0.25233276879555    2.06261054116132
H         2.52457571537411    2.90876952124915    3.19458597773000
H         1.35877725026829    3.07772150759479    1.89913598901141
H         4.51154925568918    1.40833429062263    0.12829563023673
H         3.18228835556686    2.06367663172838   -0.63569993386047
