38
 energy: -53.129205053931 gnorm: 0.158953900287 xtb: 6.4.1 (79825abcba525fcdf90b791dcacef51065a7a4e7)
C         1.16065236743968    1.10040145419328   -0.04120195283078
C         2.60893265637204    0.40600979811968    0.32380948057300
C         3.29589224280187   -0.36999750328384    1.69302994730368
C         2.37991187324304   -1.40326088797170    2.43557222412837
C         0.98299683774751   -1.10272433471565    1.95168950641072
C        -0.16292185678022   -1.89383969627112    2.56804655839216
C         1.11827207536651   -1.58948009587844    0.32883429817014
C         2.31577779321327   -0.88422709156397   -0.43954197857228
C         3.41130016970484   -1.83629358860424   -0.89145939312933
N         4.37901516528490   -1.19131936939373   -1.61764247130151
N         3.53687639663770   -3.10814050677706   -0.65152775844724
C         0.62546292072400    0.43232487360848    2.41095227234612
N        -0.56038017918477    0.85161462397903    2.74051202881977
O         1.66616461200030    1.09801375776763    2.88835817417820
C         2.28049149823770    2.31785952991135    2.37022281269240
O         3.50594794624476    2.25841469815963    1.59939975464102
C         3.55538642648813    1.58382946936881    0.30696570834039
H         1.15018555714151    1.33503725150749   -1.11033012407748
H         0.94857083371947    2.13930828174486    0.25618376501242
H         0.25499492021149    0.58043845034379    0.25197056457095
H         3.68547615934330    0.34869861173927    2.41859559380163
H         4.05779990614229   -0.98174815238559    1.18358210967565
H         2.57724647098995   -1.21033964438513    3.49423535135755
H         2.68582504658833   -2.42869632022650    2.19194332055121
H         0.00822893046380   -2.94057498927525    2.32200346431826
H        -1.12141562502474   -1.71465533821095    2.05064126319976
H        -0.29458327944433   -1.74496913478353    3.64541303453215
H         0.18637901803747   -1.51273198072993   -0.24187096676291
H         1.28697354405035   -2.67428889664798    0.44212550669457
H         1.83628674277588   -0.61789399928792   -1.39723341051045
H         4.34890146071904   -0.19070001497188   -1.65738781631110
H         5.30190415525249   -1.60490813937547   -1.68978628105268
H         2.88290870961262   -3.56545213487136   -0.01960488986475
H        -1.34944000252515    0.31927053629910    2.37476199497481
H         2.65494573520685    2.85407092212566    3.24845854447418
H         1.53500505538708    2.97814563883938    1.91668453198357
H         4.61865821002630    1.37114402702060    0.17692183536182
H         3.27001931240079    2.31441283100539   -0.45787964163946
