38
 energy: -53.129560710913 gnorm: 0.148077890688 xtb: 6.4.1 (79825abcba525fcdf90b791dcacef51065a7a4e7)
C         1.24062384901796    1.22844185035620    0.05401207763067
C         2.64317291245421    0.45369452362952    0.43552433736607
C         3.27006217293384   -0.41145674568767    1.77991587515235
C         2.28589567822886   -1.31382401461679    2.60160431489739
C         0.96770920616372   -1.07729935183763    1.90714280642546
C        -0.07461882918482   -2.03022918216656    2.47667431068351
C         1.21161614485796   -1.51065032409652    0.28184102921287
C         2.38246990239954   -0.74718020413865   -0.47182911507226
C         3.44199883835706   -1.73909530752893   -0.92386020450539
N         3.84352204260566   -1.71671594417349   -2.23461731205843
N         3.83714276906984   -2.76555679325846   -0.23019655072456
C         0.54950234513091    0.44396898446231    2.36098687370704
N        -0.68968372123815    0.83214980606585    2.42709942316250
O         1.56031066912931    1.16555848086245    2.82108811192565
C         2.33310589778661    2.36772915444010    2.51866683524723
O         3.52768685886929    2.26389561636031    1.70525410329455
C         3.67175632339608    1.56064248153074    0.43538239164451
H         1.44966530009863    1.65052481547214   -0.93409024523160
H         0.91371329684806    2.05614524132435    0.70268828690544
H         0.37775176421742    0.57180378578116    0.08238950563475
H         3.82477465872665    0.23060637484433    2.46896902289229
H         4.04322315676607   -0.96758349610113    1.22563763697270
H         2.16819047732978   -0.96450948343203    3.63167810023417
H         2.66799578947843   -2.33964770414442    2.52323984444544
H         0.13460281533143   -3.07213345506716    2.23972211094368
H        -1.04907409819661   -1.79346889281173    2.01525578120594
H        -0.23401329457247   -2.10643914265083    3.55787786545568
H         0.21633443818984   -1.51270934678943   -0.17579366973569
H         1.45897949354746   -2.58141925326368    0.38367661196140
H         1.95005996238829   -0.37847377869811   -1.41792375507050
H         3.86167734495614   -0.80579169770781   -2.65128627393443
H         4.64887418753724   -2.29292919434158   -2.45226542738832
H         3.39338132181522   -2.83214182823665    0.68346443094324
H        -1.35373233790849    0.09346539079594    2.19652735025516
H         2.70935093318657    2.52814062481738    3.53441506039571
H         1.68745131157966    3.15779651447739    2.12325760578623
H         4.72004315721533    1.25468224217319    0.42209936274815
H         3.49417493313944    2.18020369013676   -0.45049773938552
