38
 energy: -53.126059637290 gnorm: 0.147986014435 xtb: 6.4.1 (79825abcba525fcdf90b791dcacef51065a7a4e7)
C         1.25829541964236    1.07383096194190   -0.13580287421589
C         2.65046503643561    0.37349112086597    0.39741075219126
C         3.30545770627243   -0.29808592869522    1.83575505562365
C         2.38569346464172   -1.35285401941104    2.54252254884009
C         1.00448594405121   -1.08151369592428    1.99986564751763
C         0.07843568829261   -2.08940524274795    2.66730457176785
C         1.13227271476005   -1.58678566512967    0.38207074922444
C         2.35477179034975   -0.91150158887608   -0.37376736035238
C         3.47964830511061   -1.88072779708287   -0.69947061151142
N         4.41959927846518   -1.31459522813863   -1.52153629846687
N         3.56319040206796   -3.15635333478804   -0.46128715994487
C         0.56233352580143    0.45824358945345    2.35872153885059
N        -0.66875137064313    0.87452241685888    2.40090284322100
O         1.64006601051716    1.15729164279918    2.68112279849150
C         2.04024446298015    2.49157902081823    2.24132754396263
O         3.25128003655642    2.43642050460421    1.44773082616635
C         3.57310383116901    1.56772921079227    0.32092115724469
H         1.08694731640332    0.96473262183751   -1.21141243777341
H         1.30861869750997    2.17056338121144   -0.04983886925912
H         0.33668312387655    0.79917934038714    0.36591848467884
H         3.66403025954472    0.55024084862415    2.42440829648794
H         4.17148337505885   -0.88583005269103    1.49102963009097
H         2.35170761906559   -1.17301418672746    3.62114656028358
H         2.69589286653480   -2.38651097622364    2.34305987698583
H         0.51126300420104   -3.08831456388844    2.64926998243433
H        -0.90067525652976   -2.09854854151059    2.15761473363058
H        -0.08923287856908   -1.68176948466279    3.67026820061595
H         0.15275580124282   -1.37600540323029   -0.06080365077302
H         1.13672554665236   -2.69037501972784    0.39533378050412
H         2.04221503643882   -0.53628813427652   -1.36348498942974
H         4.25675237373828   -0.34384560350221   -1.70822232182370
H         5.06591206152352   -1.86491624159163   -2.07598291591366
H         2.80515818784380   -3.45364296533384    0.14956487968766
H        -1.28291378001126    0.18983258483765    1.96069484019126
H         2.40703677380963    3.06879074117826    3.09650393225237
H         1.17800558068350    2.97199820126614    1.76892276955262
H         4.62477609693407    1.28881666994371    0.41519009199325
H         3.51014074336394    2.18945400761526   -0.57889480433534
