38
 energy: -53.131116506937 gnorm: 0.147965055408 xtb: 6.4.1 (79825abcba525fcdf90b791dcacef51065a7a4e7)
C         1.15433208242604    1.22076940826610    0.04447894815955
C         2.51671269085193    0.36245027593215    0.39108570276875
C         3.23179299986478   -0.46898945339061    1.71253702863964
C         2.32410967395713   -1.38163492623072    2.60764121297930
C         0.97536440426865   -1.11710493861776    1.98575185109132
C        -0.07712439338328   -2.00660220942097    2.63378817699558
C         1.10435553575465   -1.66295768770148    0.38129069661661
C         2.22935147271090   -0.89182540719270   -0.43206222583384
C         3.41042714277643   -1.76785046167308   -0.81737977068166
N         4.21306057339236   -1.11968378522280   -1.72041102735402
N         3.75244386098213   -2.98876877538361   -0.52873779014148
C         0.68081019669276    0.44228522511578    2.40607188256501
N        -0.47942200474827    1.00824971979730    2.56158000032006
O         1.79645199429169    1.02702208373887    2.81539357318674
C         2.29304538519573    2.32844214486528    2.37540914461621
O         3.32385963375315    2.40390604929783    1.35994247591525
C         3.54651777630367    1.46150005562529    0.26898443258063
H         1.47352593489057    1.47595744132083   -0.97099774690934
H         1.08904526521397    2.22460837881723    0.49257401329968
H         0.19247225215695    0.72105836492520    0.00396232842859
H         3.69196860157272    0.29334538386003    2.34643706111949
H         4.02657104884664   -0.98885456287007    1.15365657801088
H         2.32564793001046   -1.03422658810647    3.64505734977759
H         2.69932599767257   -2.41287655128710    2.62210311512279
H         0.16652244131264   -3.04983307924399    2.43939133303790
H        -1.05566925809319   -1.97974125676269    2.12363721659567
H        -0.26664209450021   -1.81966976884705    3.69649932787179
H         0.12963471185936   -1.43588989485093   -0.06410685019394
H         1.33101140783610   -2.73827003971158    0.27913562651666
H         1.86203489208770   -0.71590136871021   -1.45780445094269
H         4.06545551161602   -0.23747571790538   -2.17168398640159
H         5.01079535147356   -1.64845136211881   -2.05508782944312
H         3.05170743717657   -3.44383927505112    0.05265147671507
H        -1.21354445644730    0.38687454918738    2.22285320890121
H         2.76817856123497    2.64381694253200    3.31019459156172
H         1.45051834391001    2.97600382443239    2.11418739053015
H         4.52682828309917    1.02346018597584    0.46849830703704
H         3.49733106672274    2.02516310267422   -0.66911976597865
