38
 energy: -53.119418132756 gnorm: 0.164487657496 xtb: 6.4.1 (79825abcba525fcdf90b791dcacef51065a7a4e7)
C         1.17282130669851    1.16906275117862    0.08549538802822
C         2.52240331612289    0.30489621646341    0.46598653386126
C         3.28825322154808   -0.45551861192046    1.80169185293809
C         2.32500291800455   -1.39156085481759    2.61039208073018
C         0.97774351695990   -1.10391257919088    1.99558570338603
C        -0.06998532132841   -1.95388896620116    2.70176810805460
C         1.08358473644036   -1.66187508113115    0.39359786260398
C         2.28624047416860   -0.95485249205276   -0.36504702448679
C         3.48979515001010   -1.73527474459784   -0.86826316400872
N         4.23754545494179   -1.12482514252085   -1.84192978458153
N         3.82669192600920   -2.98492165286439   -0.74250812832835
C         0.64232847861749    0.45393325064184    2.39022724250378
N        -0.50430973786135    1.06682923872885    2.40494691572519
O         1.68821844464895    1.08365525581275    2.90372744190778
C         2.24724423945297    2.31818867436802    2.35847256840921
O         3.38311725815769    2.33581330394743    1.45906874697594
C         3.47852158224028    1.46238981226386    0.29462700177796
H         1.47242138063861    1.39067763318188   -0.94373986510940
H         1.13690245884054    2.16510461476215    0.55384854885113
H         0.19628195797489    0.69704876217388    0.07545777681409
H         3.79926728627402    0.35885382906569    2.32169896210355
H         4.06930302924179   -1.01736700015166    1.26450768841447
H         2.36668517111595   -1.06907894682445    3.65499495858412
H         2.66294197899141   -2.43416333504659    2.55353268500040
H         0.37345282032359   -2.58738389525910    3.46827404648146
H        -0.59840407906288   -2.54519834778151    1.93387983159054
H        -0.78511208581621   -1.36160727404991    3.28315593305319
H         0.17795695473974   -1.60866347641204   -0.22042679254382
H         1.40712795815023   -2.67898853173610    0.67449861594898
H         1.83418387844045   -0.77377723518493   -1.35543808102945
H         3.71522705057818   -0.48718353125925   -2.41142279117743
H         4.69829228969936   -1.84596117640897   -2.38567574591479
H         3.32459163769282   -3.49794604417539   -0.02081882559498
H        -1.34162977077651    0.54362418189360    2.15013258351559
H         2.70535517381625    2.68279827059185    3.28379999700527
H         1.46722068192709    3.02784109325253    2.06627153427631
H         4.55790804161214    1.29649928909531    0.30455689636629
H         3.35713824952909    2.05623541873079   -0.61794536954250
