38
 energy: -53.128477280340 gnorm: 0.161369117876 xtb: 6.4.1 (79825abcba525fcdf90b791dcacef51065a7a4e7)
C         1.04896545947578    1.03175558509922   -0.03468018662828
C         2.50381625123688    0.33203212620973    0.29200798538687
C         3.31357967345092   -0.23041240181199    1.69799689999705
C         2.46456398136052   -1.33501399493149    2.41705875160864
C         1.02049778858094   -1.12778434671336    2.03291687438717
C        -0.00810545465546   -2.04462241750063    2.68120111159590
C         1.07567526638332   -1.62183973742147    0.40756944547910
C         2.29558391065051   -1.01106452368795   -0.40519150741978
C         3.49415544517845   -1.92291932419270   -0.61201589627972
N         4.54330222732261   -1.21111683313010   -1.13396815789463
N         3.68565563640075   -3.20888943985500   -0.58878464559767
C         0.66230904033807    0.45077398245027    2.30674748783049
N        -0.52246470594364    0.94292913642737    2.51824647408091
O         1.64609780695631    1.22855207979180    2.73258659558330
C         2.17138285751790    2.49783060731257    2.23570321534148
O         3.29882329351900    2.37876351511819    1.33340256769326
C         3.38123695967272    1.55211069201132    0.13434116659125
H         1.05121984997109    1.02625964585778   -1.12928663370762
H         1.05712961899377    2.05994270156223    0.35966590889395
H         0.12437028368367    0.61424832630597    0.34916679764552
H         3.69034608000490    0.54332478283345    2.37188344355095
H         4.21607205554922   -0.67766959521822    1.25106543089896
H         2.56606053671178   -1.18266317698191    3.49567584613660
H         2.86151896358453   -2.34401974710100    2.24738301024388
H         0.31424831066338   -3.08319609425438    2.62700400552335
H        -0.91004534444161   -2.00548009730759    2.04598627829459
H        -0.28330425652879   -1.82144060380394    3.71786459626639
H         0.12062197310766   -1.36554906996760   -0.06381971048068
H         1.28748224702751   -2.70223408995191    0.33016753978897
H         1.98798025378164   -0.80208408511276   -1.44428968062882
H         4.37535565427320   -0.25130696444965   -1.36695868369053
H         5.26686803221629   -1.66090410053361   -1.68363026003479
H         2.94836098729718   -3.71757716097274   -0.10528947787957
H        -1.41342211222231    0.45147194301142    2.45158741406928
H         2.57239031771743    2.99588840922428    3.12461719682886
H         1.37298651321985    3.05423645996739    1.73530282367802
H         4.42805713366851    1.37159002070283   -0.11918043575157
H         3.01616143564201    2.21935599212677   -0.65412469638874
