38
 energy: -53.125871371324 gnorm: 0.159745077005 xtb: 6.4.1 (79825abcba525fcdf90b791dcacef51065a7a4e7)
C         1.10888159850494    1.17482430784470   -0.06496559788833
C         2.51139836954185    0.39292070102270    0.30178002997213
C         3.30601744947739   -0.30802171394957    1.65312221897883
C         2.42725485434417   -1.24488634873036    2.55205671405644
C         1.02744080337066   -1.13068758502157    2.00131580081523
C         0.08731557232569   -2.13963399546719    2.64713375619658
C         1.06248476782882   -1.50424600793389    0.34357167863697
C         2.29122430758685   -0.90852713697273   -0.46705893985973
C         3.43325224166814   -1.88373900188730   -0.70277751760781
N         4.40765583360483   -1.38951384393763   -1.53108002562641
N         3.60853265696687   -3.08251847859280   -0.23040510107252
C         0.68121603655752    0.42779639875425    2.38391858705572
N        -0.56999278971342    0.77226640261889    2.30358028652774
O         1.68092533034001    1.15614791882418    2.85741984389594
C         2.21553790609077    2.39775802380283    2.30381421112938
O         3.31132925746752    2.41515419771777    1.35598297834161
C         3.40124141994705    1.60430469369854    0.14671293596097
H         1.32408742968665    1.39950713447967   -1.11444291605231
H         1.04027254512495    2.19153875638747    0.35256136502371
H         0.20240783511387    0.57933101173523   -0.05012954952959
H         3.68972795812388    0.47360323284551    2.31385962704347
H         4.17271910250185   -0.87876397332363    1.28250010956122
H         2.53771237245942   -0.88132583490955    3.57799533180946
H         2.75836175609159   -2.29010777912911    2.60038998211937
H         0.58425056062733   -3.07472853048002    2.90038932810489
H        -0.74883074473272   -2.44787263714170    1.99569393470115
H        -0.46075078061610   -1.77458578306537    3.52267859396201
H         0.11729671434584   -1.18735672038179   -0.11054302128726
H         1.06971878676037   -2.60683114582490    0.29500330054616
H         1.96905513950757   -0.66365128397693   -1.49383091481050
H         4.32780394264015   -0.39624256479038   -1.63481749633626
H         5.22277153052296   -1.88983147110337   -1.86761108440542
H         2.95374210694819   -3.26018447040466    0.52842182894699
H        -1.26452771979887    0.03864067911170    2.16504061563068
H         2.57298881050868    2.90114558134630    3.20817389811067
H         1.31904868072275    2.95643187304451    2.01813021315896
H         4.45941804516381    1.36147292859842    0.26498533890061
H         3.13617456259380    2.17396468430820   -0.75072892911567
