38
 energy: -53.128504814360 gnorm: 0.165479922465 xtb: 6.4.1 (79825abcba525fcdf90b791dcacef51065a7a4e7)
C         1.09252058542123    1.05375578599694   -0.18603891769804
C         2.49561015040096    0.37030001175192    0.34041788755463
C         3.28894455569970   -0.31614546805751    1.69993198665080
C         2.38584499725475   -1.33604761045207    2.47596875879376
C         0.97126394683062   -1.13284456634196    1.99274494897706
C        -0.09479054386372   -2.05410680962842    2.57040646170265
C         1.15169588341292   -1.67082105863063    0.39058542309506
C         2.26767442881365   -0.91650598390347   -0.45048797652058
C         3.51492278330890   -1.77354501585051   -0.59431032019247
N         4.18409817573806   -1.40299891601202   -1.73216171634932
N         3.99582269223301   -2.84884158070486   -0.04348936732119
C         0.67967061498157    0.45865010713136    2.27067805334769
N        -0.49086648339506    1.01886302752006    2.35217485392445
O         1.71330376085785    1.08499799937807    2.81235037005741
C         2.15576675721772    2.40784760719176    2.37855216668889
O         3.29045239142103    2.43075103173034    1.47776955606996
C         3.45361708829071    1.53885108344542    0.33505922454928
H         1.45964093283642    1.51015882515051   -1.11076454030127
H         0.76840438179512    1.91513651979302    0.41870578332155
H         0.25549264700537    0.39681090002415   -0.39659699124275
H         3.74821425004077    0.33753647825166    2.44593231321977
H         4.10668247409634   -0.86484874712036    1.20545383568226
H         2.46898771940356   -1.18132907608039    3.55581903222631
H         2.68112592242630   -2.35115309664893    2.18130665158653
H         0.24306732352935   -3.07973756569443    2.43105736429025
H        -1.09163757133231   -1.86632540568450    2.13502190869353
H        -0.12410477529646   -1.82403924289731    3.64111897286057
H         0.15767906487401   -1.53589946485533   -0.04958063687524
H         1.26259142906398   -2.74749129382749    0.60642931391586
H         1.94342842290359   -0.71383138000427   -1.48576830653022
H         3.91223505059110   -0.58799528130835   -2.24751124182198
H         4.93725890260354   -1.99291852935313   -2.06791200338348
H         3.53908412427178   -3.14798275800645    0.81560236644254
H        -1.30560299679082    0.45633756051665    2.10814980830206
H         2.52815530444472    2.88308944254660    3.29206658595396
H         1.33168212572654    3.00188777825733    1.97182677729727
H         4.52353076271101    1.31995519007503    0.32714082126016
H         3.31319981668337    2.13054474474368   -0.57617973676702
