38
 energy: -53.135094270085 gnorm: 0.144985578888 xtb: 6.4.1 (79825abcba525fcdf90b791dcacef51065a7a4e7)
C         1.10136442308798    1.08662841073616   -0.03620261568628
C         2.52966317874286    0.37270008936381    0.36777503409255
C         3.35597693589940   -0.34298337117462    1.69211194477076
C         2.45690416846857   -1.34020446798222    2.50158123222342
C         1.05430692428019   -1.11273129587946    1.99481381168744
C         0.02884715120592   -2.03990391062203    2.63330605906907
C         1.12831673414479   -1.60788755676092    0.37055016801980
C         2.25902192737840   -0.87546135883939   -0.47020038237191
C         3.33881849990217   -1.85672491985780   -0.89680378811908
N         4.56912698556944   -1.26022299725449   -0.99845225919973
N         3.08664961559320   -3.11139969844361   -1.12731026915848
C         0.69001603836731    0.42845552815624    2.42743849595997
N        -0.48526179607095    0.98386357956500    2.39775266898243
O         1.70986192914190    1.14290418806826    2.87865409802999
C         2.26689912439537    2.39446264238635    2.37150870257077
O         3.37956594569156    2.37319089943403    1.44362647909754
C         3.49884912036244    1.52711182090539    0.26133342340031
H         1.18343240500875    1.13657934296567   -1.12660085257946
H         0.93355373578123    2.06393298759595    0.44281677872268
H         0.23022712762121    0.46451666618364    0.13879411542076
H         3.75184498651788    0.42789049527435    2.35828550116677
H         4.19279345341691   -0.87651242504932    1.21319221896735
H         2.57389122855580   -1.13832858646193    3.57045321542076
H         2.80168917499499   -2.33880761287970    2.20430898031569
H         0.34522869130840   -3.07366658225816    2.50399240120727
H        -0.98792464055413   -1.98444237713120    2.20713155404480
H        -0.05171730616413   -1.78485015191412    3.69569612093794
H         0.17579669467879   -1.45738436792654   -0.14913608811873
H         1.29063259871219   -2.68358773551273    0.55663590573454
H         1.84629899106940   -0.58449182473746   -1.45153333742624
H         4.65242715658208   -0.26902497429297   -1.11808996324327
H         5.34588511436472   -1.87031541901791   -1.22740320651693
H         2.09616174227579   -3.24850768364728   -0.93686511218802
H        -1.29390599173971    0.41615383397317    2.14560407072794
H         2.62495964020356    2.85584652053981    3.29776687992847
H         1.41601633999643    3.02126368165580    2.08770650247845
H         4.55602391395917    1.25560950159953    0.29822986039256
H         3.40922536537957    2.25441176599188   -0.55302351354294
