38
 energy: -53.122637668697 gnorm: 0.152085818115 xtb: 6.4.1 (79825abcba525fcdf90b791dcacef51065a7a4e7)
C         1.05418222339633    1.01336248140509   -0.04271625087455
C         2.45891385851274    0.28572699452225    0.41576444599696
C         3.26140423625819   -0.39391935381956    1.77331942269265
C         2.33339548782346   -1.37082034061135    2.57487198028390
C         0.93907385348889   -1.11667058170369    2.05804380214024
C        -0.19456971193765   -1.90981725941484    2.69417251245242
C         1.18640996882674   -1.71848692399883    0.48784271253803
C         2.25636554799257   -0.97611861688687   -0.42094119253674
C         3.52594880005615   -1.76238960356692   -0.70513399852338
N         4.44645977962176   -1.06031561566429   -1.43967983031310
N         3.95407875389153   -2.98683808111245   -0.61369093719211
C         0.69892576743427    0.48255700255169    2.34076062220392
N        -0.46722094563773    1.05005246895665    2.43397048759514
O         1.73107058394968    1.18331104618662    2.78543903847938
C         2.27035158500235    2.42338411794613    2.23291732704897
O         3.45615312474051    2.25849759384506    1.41674790779547
C         3.33114024858235    1.49671573482254    0.17902607198171
H         1.30879190986159    1.13411530856518   -1.10044552958944
H         0.77964182993566    1.98987241664987    0.38600295542956
H         0.18875979411766    0.38863439891277    0.15037934003756
H         3.67481231651776    0.37109123479720    2.43558658441992
H         4.06503803434095   -0.95511354808045    1.26981864657106
H         2.26210119689817   -1.08428779971865    3.62831556699032
H         2.60125178646576   -2.42786381882355    2.45090498268544
H        -0.03469797768013   -2.97122484760568    2.51158139661237
H        -1.18308171715661   -1.76235849891259    2.22553033494835
H        -0.43697546230634   -1.64673064274482    3.72966300752781
H         0.21824983474049   -1.71649627491623   -0.02468184949046
H         1.50077459072019   -2.77576179332327    0.52592076180743
H         1.83795959348771   -0.89702486085442   -1.43912510728891
H         4.26688293376527   -0.27783162528892   -2.03900993875894
H         5.24381346695537   -1.63433047163809   -1.69011651942500
H         3.30170192050262   -3.58937046400472   -0.11620388123290
H        -1.23950936901006    0.39434161641191    2.31824417031108
H         2.46479069412215    3.09804533963835    3.07319245622427
H         1.58375031251308    3.00581403958088    1.61100187727797
H         4.35016151300626    1.24635959642850   -0.12364680452732
H         3.03997015028785    2.16588004014463   -0.63805039807962
