38
 energy: -53.128497223356 gnorm: 0.151446242317 xtb: 6.4.1 (79825abcba525fcdf90b791dcacef51065a7a4e7)
C         1.10906841764062    1.26079310316836    0.03150274220420
C         2.47931272868455    0.39430919092642    0.32230345009091
C         3.31995400629910   -0.43499562217910    1.56907578051346
C         2.43712010006141   -1.43253297834042    2.39584406088076
C         1.01451625391644   -1.13024087269693    1.99502731497325
C         0.05853731814124   -2.10407921814190    2.67077305109062
C         1.01495952192400   -1.51052096495636    0.33844154653976
C         2.22530558538880   -0.88306775728272   -0.47591015747863
C         3.37970015285043   -1.80917850770236   -0.82307191832074
N         4.52568485217960   -1.18397052827188   -1.24216612586958
N         3.43419342590060   -3.06039386366188   -0.47318368344695
C         0.63819673948285    0.41742918050598    2.39280845929879
N        -0.52024631534279    0.98830369426431    2.54363726335006
O         1.76430225305178    0.98848541871575    2.79268246313627
C         2.28182946290191    2.29380472179398    2.38995107058835
O         3.34714370267887    2.33848930674937    1.40885258903790
C         3.42626696681041    1.56272781841771    0.17603923003081
H         1.19356299798332    1.38680560367841   -1.05255448666248
H         1.03235775454751    2.22734636040954    0.55364688919771
H         0.16930255703774    0.74656009792473    0.20159566192001
H         3.86555756174468    0.28492571971619    2.18452297919262
H         4.07042059730899   -1.01340372216015    1.00647183503706
H         2.67490170893823   -1.25995875797061    3.44969661235414
H         2.77507671808253   -2.43971364673798    2.12047493895347
H         0.38333908013859   -3.13442705903460    2.53523079593820
H        -0.94294156462312   -1.80157886196012    2.31855272972493
H         0.13158961783667   -1.91264983607985    3.74698578520859
H         0.06279349550452   -1.20769839724226   -0.11066621954604
H         0.85605594428776   -2.60166699586559    0.38593041717664
H         1.88853921002687   -0.54092745097804   -1.46966378315604
H         4.45508236882188   -0.25188628244785   -1.60266559099324
H         5.29071766106808   -1.79699613703956   -1.50083365098288
H         2.54214378140569   -3.46406032703028   -0.19491224605627
H        -1.22540953625393    0.37826866295860    2.13086515684636
H         2.77534860333641    2.87500130018397    3.17588110686986
H         1.39080432646021    2.82797578524707    2.04620663876819
H         4.49931564878591    1.36962094291901    0.11303402552610
H         3.14707290925573    2.23710094682112   -0.64093470528088
