38
 energy: -53.131146445005 gnorm: 0.154378479669 xtb: 6.4.1 (79825abcba525fcdf90b791dcacef51065a7a4e7)
C         1.11736707995101    1.06545244949379   -0.17880447757316
C         2.52438973281033    0.33493655027070    0.26791992178017
C         3.23451636400708   -0.31258354241265    1.69105146062009
C         2.37561859403503   -1.30371866487611    2.55010213537509
C         0.96013520416402   -1.15680017002028    2.04944454617318
C        -0.02948255603554   -2.06050938819628    2.77253199557660
C         1.09205840612510   -1.64986700212295    0.42821942567352
C         2.24837826603466   -0.99113690318866   -0.43826937414042
C         3.48621831754808   -1.82514981370207   -0.72637299175266
N         4.41374077348781   -1.14329070156725   -1.47107169302936
N         3.75120066375784   -3.05204129427591   -0.38658952642600
C         0.71342097334282    0.44217652524120    2.32789453641832
N        -0.46883807855069    0.98336935491745    2.33124158156998
O         1.71279926097214    1.17123043495655    2.80101342739498
C         2.15246795775052    2.45509027672286    2.26038341820498
O         3.19166342973573    2.43200965147774    1.25093533939334
C         3.46454110145653    1.51222960724213    0.15210068533075
H         1.27828648739213    1.16581278254151   -1.25687280110804
H         1.10973118913605    2.09189557964195    0.22006948563917
H         0.31975907224711    0.41460222152912    0.16287155954405
H         3.58828551141260    0.50740217943997    2.32130223812429
H         4.04295629015273   -0.93747867984182    1.27848608099482
H         2.39426129452493   -1.21631228577902    3.64048726516064
H         2.68904288151302   -2.34277964577818    2.38708917656474
H         0.10062827039152   -3.13155386052560    2.62617810466261
H        -1.06722405207428   -1.91364791184205    2.42604988128783
H         0.12001665035621   -1.83368280649076    3.83385917452537
H         0.12383657354964   -1.45155454626774   -0.04426135147920
H         1.28216082640426   -2.73652063108978    0.46213343960488
H         1.82703761023003   -0.84124637635613   -1.44724049614498
H         4.37666054295618   -0.14212695662537   -1.46639925256499
H         5.34395524281966   -1.54142902677352   -1.40648528473419
H         3.07230285081744   -3.49990537156933    0.22549682464252
H        -1.15895188670691    0.24101323801582    2.21975594411104
H         2.63223707428075    2.86294690158158    3.15621331116196
H         1.29315471775791    2.99989208239927    1.85764715746186
H         4.50440370231753    1.19704946607688    0.26183055200783
H         3.22844776564719    2.10011551203931   -0.74166939086809
