38
 energy: -53.130144069753 gnorm: 0.153551363515 xtb: 6.4.1 (79825abcba525fcdf90b791dcacef51065a7a4e7)
C         1.04375462363007    1.08458902294520   -0.07297295008264
C         2.43883212336120    0.32572592615429    0.36385021342847
C         3.23047272230269   -0.27586415479096    1.76394307600114
C         2.37760279288646   -1.30927909416103    2.57800003496691
C         0.98372224714803   -1.14397666669746    2.02518140216548
C        -0.18257610315157   -1.99629108352545    2.50705011467829
C         1.18241646176791   -1.66468441739258    0.41948105490618
C         2.35442231782016   -0.98784520735494   -0.41123838934503
C         3.61377160106455   -1.78125246333495   -0.72006446596007
N         4.55063929808552   -1.22413368758849   -1.55175160696074
N         3.86407617204461   -3.01186550580520   -0.38261768803713
C         0.70352972619299    0.42287209171894    2.42718381569072
N        -0.47590427315680    0.95477944382908    2.55620850771340
O         1.73747176674053    1.14685760203223    2.82834077871963
C         2.11757496214444    2.44110654514215    2.26769230587411
O         3.24070786154550    2.43826635622193    1.35226355236432
C         3.38906225260570    1.49503852318807    0.24944562256937
H         1.11925758183190    1.05180644212701   -1.16449627476913
H         1.00747214421308    2.16287297188768    0.14777927638883
H         0.13433798932763    0.54363346106393    0.16547101755479
H         3.70684531945000    0.40799445054187    2.47115718285278
H         4.06462997509142   -0.90410364050476    1.41212484807042
H         2.32020339987383   -1.19066355889071    3.66407684038851
H         2.78752311114179   -2.31900125705589    2.44806843163286
H         0.11738732719192   -3.04122691789200    2.56718003297218
H        -1.03272297569594   -1.80681714299231    1.82890890820746
H        -0.46354112048119   -1.74098904233919    3.53471505072014
H         0.26109373705936   -1.53566967124705   -0.15891247160083
H         1.48793450251221   -2.72058994096885    0.51861464575655
H         1.86713656768474   -0.84801155884697   -1.39155313814909
H         4.23265069016422   -0.50297870805365   -2.17025331225549
H         5.23547805764863   -1.84922651684337   -1.96192146910230
H         3.13958667706696   -3.32769118823858    0.25886753485894
H        -1.33819659414180    0.43120155008802    2.40755840833167
H         2.55394716266944    3.03244105856634    3.07944314598796
H         1.28509024524314    2.95219297472344    1.77455478912430
H         4.43217909003743    1.17263995615180    0.22375844880573
H         3.29931954282024    2.03933016102946   -0.69705726240194
