38
 energy: -53.129936807568 gnorm: 0.151530898631 xtb: 6.4.1 (79825abcba525fcdf90b791dcacef51065a7a4e7)
C         1.19451043990347    1.19355968510963   -0.14465574580657
C         2.59002183942845    0.43157868981680    0.28529983522561
C         3.33141039411649   -0.32572074634725    1.63648674126743
C         2.45043006949429   -1.34481631436832    2.43857162669596
C         1.02466448600311   -1.16470156099062    1.97967353324191
C        -0.00788509477511   -2.09796279731432    2.59753595779951
C         1.09333123655638   -1.49540111100583    0.31389676801434
C         2.35974885348455   -0.89628620220800   -0.43380074362354
C         3.49914806042397   -1.88502955968344   -0.62084417601505
N         4.57238844687641   -1.44620035132985   -1.35254760670730
N         3.55746236206238   -3.16345717624752   -0.39029389850843
C         0.59894993132901    0.35277609744608    2.43919227709171
N        -0.58500357202812    0.85012896271234    2.64298526534720
O         1.58776788877185    1.17783230330640    2.74844842722684
C         2.00255506529148    2.47515966710976    2.22045337598541
O         3.17618624458573    2.37292296548823    1.37689965158951
C         3.50880376642848    1.62558782208407    0.16911203407329
H         1.12377531054650    1.25627751787224   -1.23518844616415
H         1.32766419877618    2.27029472827977    0.04417212670450
H         0.23889281165416    0.92502118440182    0.29261885826122
H         3.75942464935121    0.48168938302169    2.23618493004724
H         4.13549175728226   -0.90369948892449    1.15308941973072
H         2.60044172724621   -1.11657205231625    3.49797155768421
H         2.77271665638315   -2.36666467028535    2.20105736323743
H         0.29995166042293   -3.14223547118950    2.58285013280548
H        -1.00754772671446   -1.98901113061348    2.14220122018942
H        -0.15468944491855   -1.84677662820661    3.65374128099581
H         0.10638274042578   -1.12365978225214    0.01765279495719
H         0.99249984040904   -2.58607664955761    0.17837888328760
H         1.98738036456340   -0.59729475307736   -1.42876992390988
H         4.76409845718130   -0.46471652253236   -1.29202996030681
H         5.36229011928999   -2.08181648468616   -1.35820159077040
H         2.76324011108543   -3.55968184074689    0.10805457841286
H        -1.28763915218943    0.12361726821091    2.50784564232561
H         2.40898918030552    3.07979104711440    3.03793048917953
H         1.10287588473387    2.96915848667401    1.84102316291219
H         4.57613422974549    1.41343615222103    0.26125729279185
H         3.40127819130574    2.30190760668551   -0.68599301403729
