38
 energy: -53.127567195289 gnorm: 0.147358048274 xtb: 6.4.1 (79825abcba525fcdf90b791dcacef51065a7a4e7)
C         1.14725008133866    1.07879492814348   -0.14959315370451
C         2.50480124243972    0.31245369279373    0.38210681263098
C         3.29723093517444   -0.33283142580074    1.76215310401718
C         2.41483590924470   -1.27477206922115    2.65218069564082
C         1.01496969830462   -1.14418072638523    2.10522842507293
C        -0.09044110263339   -2.00548341946530    2.70114267509153
C         1.13418574548078   -1.69079312319316    0.50026986238812
C         2.22446975278169   -0.96888323068701   -0.40080212444788
C         3.38620495161507   -1.83390988526278   -0.86224491609660
N         4.16406639549828   -1.15040835596250   -1.76089009757915
N         3.96996827619285   -2.90502478374297   -0.41184019560838
C         0.64584981278599    0.43099771629102    2.38396166161531
N        -0.47297871294262    1.07986576389005    2.25043131710870
O         1.69676633641907    1.09279587227754    2.84408746044811
C         2.11970287952733    2.36184512679005    2.25712565563110
O         3.31971085352741    2.31096415979657    1.44667061422295
C         3.50604842519847    1.44051729263933    0.29103411312916
H         1.29889692732783    1.19585758677997   -1.22732137892960
H         0.80219089368234    2.06956414683978    0.18515263417766
H         0.29357036228575    0.41641746397950   -0.05465056641176
H         3.73479734122006    0.44084198770415    2.39832157357796
H         4.16081215362608   -0.87807870096729    1.34837523920414
H         2.57084716978575   -1.10992594570906    3.72242057265405
H         2.74392302712689   -2.30808146328991    2.48357138699019
H         0.03154202001032   -3.03982265104922    2.38373594096644
H        -1.03141793211950   -1.54407451086642    2.35445837897126
H        -0.05401692318764   -1.84473692917456    3.78421679292116
H         0.17793551320361   -1.51488111202039   -0.00436852517916
H         1.37703108149167   -2.76421701746810    0.58329092518561
H         1.65684012045239   -0.86470884203585   -1.34152639193398
H         4.23153937534493   -0.15292145585650   -1.82564270495253
H         4.94100398989617   -1.77193525799603   -1.95597157262674
H         3.44894523375799   -3.45140325332952    0.27090406959186
H        -1.20164883246196    0.49836469566283    1.83730290676373
H         2.51798190574786    2.93174405261540    3.10307226547701
H         1.20833955826109    2.80967122000230    1.84933472485904
H         4.54614688570826    1.13122946532412    0.41444249734530
H         3.42406802733397    2.12316049011933   -0.56187404519635
