38
 energy: -53.133208999031 gnorm: 0.138453876601 xtb: 6.4.1 (79825abcba525fcdf90b791dcacef51065a7a4e7)
C         1.22103590174542    1.25061934896286    0.00272961563993
C         2.60809219887750    0.43137296588454    0.34600659495932
C         3.24543297292820   -0.35218652742024    1.73478185328837
C         2.35263231506484   -1.32594851458671    2.57900743635335
C         0.95850300340039   -1.19471223237087    2.01774388495900
C        -0.04095451158585   -2.13941494797409    2.67158681096527
C         1.16971669445657   -1.51719936876298    0.36236466793280
C         2.35585887168352   -0.84602324565895   -0.45273849532601
C         3.49385758632081   -1.81575279643113   -0.72735233572910
N         4.25003489413502   -1.38291467331376   -1.78596130671945
N         3.71341857511622   -2.99549836818017   -0.22642867159065
C         0.58284028705327    0.36993919217498    2.34312401427137
N        -0.62576130570752    0.83742461394205    2.44978660779281
O         1.61974063063083    1.12708131417382    2.66822634060525
C         2.19805374228268    2.42044141834674    2.31233447156166
O         3.23529263402149    2.47252651518733    1.30195435608589
C         3.58759393242585    1.57371741994679    0.20837255607102
H         1.13421244143489    1.39832329529338   -1.07840117448254
H         0.93202446838759    2.20914706975459    0.46146835403937
H         0.36647103446142    0.62965036216074    0.24898855808783
H         3.72386078213505    0.37440621150214    2.39653335729888
H         4.06873175081445   -0.94676064324824    1.30706701927099
H         2.42807091934054   -1.09040112383814    3.64472484507354
H         2.78741811096550   -2.32751881789123    2.46821952745810
H         0.39946073586853   -3.12262832968144    2.82910001502576
H        -1.00964850015821   -2.23093763184584    2.15026051098516
H        -0.29258253900843   -1.76565761537519    3.67018807328360
H         0.21488190278587   -1.39357392631017   -0.16015490057934
H         1.38577191106653   -2.59951862819940    0.35914299963115
H         1.87199772843689   -0.63079511891540   -1.42102207780930
H         4.07287846952426   -0.44818955586104   -2.10001572268323
H         5.08000670578154   -1.93663660637928   -1.96630348415922
H         3.20648990512456   -3.31316876435123    0.59712643466411
H        -1.32847400224547    0.12111592200471    2.26847075423028
H         2.73754692015759    2.68836265989950    3.22677525338941
H         1.43079270899428    3.12789547278175    1.98332990210122
H         4.64011443402510    1.30555711503015    0.32232005931838
H         3.52355733462544    2.07536702398349   -0.76344112581840
