38
 energy: -53.122570154869 gnorm: 0.142275203881 xtb: 6.4.1 (79825abcba525fcdf90b791dcacef51065a7a4e7)
C         1.17147388196005    1.12584981460806   -0.14263892245742
C         2.53691792839213    0.32808459459815    0.31786310214458
C         3.21428772242599   -0.35102230269014    1.74223996879124
C         2.34552887329295   -1.22233136611162    2.71388849282610
C         0.99613687227804   -1.13626435671633    2.04488177459541
C        -0.07720313304133   -2.01086998378276    2.67883396793750
C         1.19789519012612   -1.66026455329189    0.44063524648888
C         2.28994821431506   -0.95581987062720   -0.47204307415455
C         3.54327436707172   -1.77006146390747   -0.74955603141394
N         4.42100034862888   -1.13824528242525   -1.59229641030307
N         3.88113462506749   -3.00221138573404   -0.50750606234322
C         0.56890440764243    0.41526543221891    2.36946849450513
N        -0.67186826721894    0.80381240131107    2.35714908494375
O         1.54822835703181    1.20257867880972    2.78801418877166
C         2.19778305139314    2.42565317462970    2.32319925557723
O         3.30808947926638    2.30775910664181    1.39974596370992
C         3.52611313919182    1.46682080183772    0.22791679324789
H         1.01149021082869    0.79028771409923   -1.17220284043480
H         1.25147791972780    2.22390733454847   -0.11787451729500
H         0.22301580537276    1.01028458893329    0.37078002247385
H         3.77891571278837    0.35687433946427    2.35446771318734
H         4.05748581848448   -0.88284594477024    1.27270847808455
H         2.31939256510681   -0.83121137457926    3.73529399648884
H         2.79226951008913   -2.21920362554948    2.60841700928099
H         0.15763989146255   -3.07275442307112    2.62653911747381
H        -1.03760760532495   -1.80896223680017    2.17348054343274
H        -0.14082894703995   -1.69807462587222    3.72684471115038
H         0.20761831021164   -1.44824388227535    0.02300097652368
H         1.32394306791474   -2.75227140955481    0.53931737615802
H         1.78432697599350   -0.82976798189611   -1.44491302075754
H         4.17272179372302   -0.35444907168882   -2.16478822749514
H         5.06927961542247   -1.89480879770854   -1.78025954040223
H         3.34503785751226   -3.57707890494234    0.13922553911634
H        -1.37961924583968    0.11051525711779    2.11588919888915
H         2.71388982990895    2.83257843130889    3.19903157553523
H         1.43671117717046    3.16465220301503    2.05473179202247
H         4.55778797630081    1.11246202018372    0.28055028356817
H         3.36439790413812    2.13364331914134   -0.62611526906216
