38
 energy: -53.128519445996 gnorm: 0.148606110070 xtb: 6.4.1 (79825abcba525fcdf90b791dcacef51065a7a4e7)
C         1.16549219633203    1.10448146271858    0.00514627542707
C         2.57733950914373    0.34706687469934    0.38716618933962
C         3.30584811154338   -0.37277068142985    1.76556184456410
C         2.44901670019931   -1.48299735544010    2.46646051365245
C         1.04282051274262   -1.08262102813025    2.09477869899158
C         0.01970847851071   -2.06114136410405    2.65569657454332
C         1.14132469283511   -1.57615396827931    0.47132197905209
C         2.28483820447830   -0.92016432998371   -0.41403572981224
C         3.40249661214970   -1.86410164319461   -0.82713531577693
N         4.47085465954799   -1.26670332039965   -1.44481827237586
N         3.28131466223269   -3.15430477793470   -0.93494056034704
C         0.71990331123417    0.49387886732962    2.41958841305764
N        -0.43664694593957    1.08309871015114    2.49606605013025
O         1.76861647636681    1.15216464871907    2.88967202196536
C         2.08332244881842    2.45617926047263    2.31140605431399
O         3.23544947263102    2.41520532251964    1.43369890453429
C         3.46529443852270    1.56421805965854    0.27142220517157
H         1.41238188039825    1.40743080728764   -1.01733391643999
H         0.98703913467416    2.10891439861836    0.41989103725682
H         0.21836053604022    0.57694475026664   -0.02911291984504
H         3.74664532436459    0.35190256984572    2.45497589271044
H         4.16584802944656   -0.90545770054098    1.32861342852771
H         2.66979022320579   -1.49247003427124    3.53795315212328
H         2.58015282513657   -2.44714292209014    1.95883626198498
H         0.49344276967155   -3.02374199619213    2.84133171600143
H        -0.88970789074994   -2.21889531994110    2.05022062834657
H        -0.24159940442233   -1.63963797574550    3.63256339272550
H         0.13333834587146   -1.50992507635018    0.04753347685245
H         1.35897885363201   -2.65235749857922    0.58320514651848
H         1.87677432585731   -0.71858667070307   -1.41945512836705
H         4.62960138922653   -0.28288861176484   -1.34169838735640
H         5.23916354462909   -1.79656798971223   -1.84096139258540
H         2.39394498994541   -3.49130382546890   -0.56732542991717
H        -1.19552937605286    0.50811370162493    2.13100658596053
H         2.52825835004029    3.05143343971323    3.11560822916024
H         1.20109404950504    2.88175707578888    1.82357275329774
H         4.53138716741232    1.36212191985421    0.39510259857475
H         3.24171632246209    2.21982893279234   -0.57731924934962
