38
 energy: -53.130196144237 gnorm: 0.146430230336 xtb: 6.4.1 (79825abcba525fcdf90b791dcacef51065a7a4e7)
C         1.20085407535238    1.21367669083872   -0.01552539951554
C         2.55583730774931    0.34877148586234    0.34348480428301
C         3.25316814881795   -0.42171818986056    1.71057691614544
C         2.37943514359989   -1.30018422739229    2.67125914419226
C         1.02402824940584   -1.13225661041394    2.03054955561467
C        -0.03228587484660   -2.06113810053618    2.61387521537601
C         1.13732031260164   -1.58109183795330    0.39512868397765
C         2.35337142298335   -0.96086842217767   -0.41625683033758
C         3.55517907176911   -1.82809361422265   -0.75449947308427
N         4.36449197402185   -1.21639560674665   -1.67680316215634
N         3.73732377059711   -3.08985058342357   -0.49813289452087
C         0.58168892156507    0.41101015838576    2.37375860140382
N        -0.64022816065370    0.83714388077495    2.50011550667382
O         1.60715244233947    1.17849043414792    2.71068096337403
C         2.08643763374601    2.45746793624936    2.19261944835057
O         3.30425802496391    2.35419150286363    1.41435673311470
C         3.54688369448022    1.48687123175601    0.26684486109329
H         0.80993305888074    0.98552220539022   -1.01218223237668
H         1.55624845992121    2.24687092422465   -0.15317986853116
H         0.38947598837685    1.26374178986554    0.70258750399755
H         3.84710423393847    0.24554409522899    2.34045484849805
H         4.03404888309400   -1.01876076411092    1.21253607115853
H         2.39419828419235   -0.85465835948412    3.67036670351985
H         2.64537535026009   -2.36437319463151    2.63613958018050
H         0.34736778786225   -3.06673710090601    2.78742149972092
H        -0.93727398867295   -2.09898195664196    1.98293153265830
H        -0.35837413357100   -1.65313942712377    3.57690129527244
H         0.18452891205601   -1.50415934900673   -0.13993147706142
H         1.21302804275024   -2.65871050102101    0.62120738006021
H         1.92785177532863   -0.73316764064803   -1.40878050547412
H         4.34651576052684   -0.21817843697606   -1.59334681553462
H         5.27686353595510   -1.62958264879265   -1.83440738271320
H         3.08609730739636   -3.58330585628288    0.10894219051792
H        -1.38380623288840    0.20753089955764    2.19935337279899
H         2.26945252671150    3.01747556538692    3.11562196018670
H         1.27849432361995    2.93339792101807    1.62857777396505
H         4.59837009403796    1.21870854740198    0.38996482903920
H         3.46121945293952    2.07278895785181   -0.65485840330187
