38
 energy: -53.119734069673 gnorm: 0.156621500533 xtb: 6.4.1 (79825abcba525fcdf90b791dcacef51065a7a4e7)
C         1.04609316108349    1.16074627481478   -0.10021907496753
C         2.46536552497423    0.40762247960562    0.26227149088589
C         3.25484258068437   -0.26887680294264    1.62899757882709
C         2.49520289159949   -1.39383779516727    2.41349270493554
C         1.06456718951297   -1.16230821193775    1.99455133611722
C         0.03907532860197   -2.02853187604551    2.71351739578684
C         1.05836314973588   -1.47555385854536    0.32400403450330
C         2.32168845988819   -0.92710423800241   -0.46657552338436
C         3.47369798967382   -1.89010075340126   -0.70393810647158
N         4.57880438348175   -1.32849760566538   -1.28972618841941
N         3.61842361325555   -3.13964572267045   -0.37435803580277
C         0.69852350153525    0.39676862315794    2.35568889313288
N        -0.51116764657034    0.86507458616605    2.44498758529778
O         1.62513916779992    1.14324445996571    2.93730332367785
C         2.08891990541977    2.36324355367917    2.28125825146675
O         3.21336902729018    2.38420003232588    1.36768264703975
C         3.43447411821193    1.56419145455755    0.18168364263415
H         0.78685027973473    0.94269658355859   -1.14110620522309
H         1.07328803778119    2.25187209517977    0.04623610680970
H         0.16435444189021    0.77308056609792    0.39855862160145
H         3.64567281871633    0.53194389721019    2.26199297675030
H         4.15005845703150   -0.72416171962305    1.17558449814417
H         2.59976876330312   -1.30610762858249    3.49898640156352
H         2.74760373791836   -2.41388660117335    2.09686991957967
H         0.17902673841294   -3.09947884574885    2.57578302174619
H        -0.97688831395360   -1.61117175424571    2.60327229047147
H         0.30862351472580   -1.82607724009934    3.75590484900842
H         0.27791318849272   -1.01405927348506   -0.29076426485096
H         0.99629954413971   -2.57224873605354    0.21670224089841
H         1.99465402943726   -0.66822294986000   -1.48836161723740
H         4.39882233555157   -0.50652162387916   -1.83349780108349
H         5.48691361960506   -1.75138432609978   -1.44621554464114
H         2.92628289899510   -3.53335141708074    0.25973283352635
H        -1.24977895294733    0.28031454986879    2.05474693809058
H         2.60241830825358    2.76184555251764    3.16243500847824
H         1.22747725392978    2.95776549026087    1.96206397845744
H         4.47439376273065    1.23488544314891    0.23476929463300
H         3.28238502625958    2.24840710687579   -0.66027401876135
