38
 energy: -53.123585004058 gnorm: 0.153483533833 xtb: 6.4.1 (79825abcba525fcdf90b791dcacef51065a7a4e7)
C         1.04200813219639    0.87134826455431   -0.01528866731205
C         2.53537594495056    0.27549336544837    0.34211650351293
C         3.20384319847596   -0.46276460564257    1.74104188127211
C         2.25426658635610   -1.39335691690555    2.57189957537790
C         0.93996209879774   -1.00624267360894    1.94056559755851
C        -0.21729637271233   -1.88440830966067    2.39714758478109
C         1.13703991713822   -1.65473412748913    0.38187745882287
C         2.29615933155236   -0.99130102478961   -0.47725149251519
C         3.57053526821466   -1.78319263586132   -0.72159333453396
N         4.28299771009142   -1.17834378813556   -1.72476883430627
N         4.05753565452733   -2.86156247843860   -0.18226014573069
C         0.73001197543728    0.52446931849697    2.49551652406104
N        -0.42624165148115    1.11905116472660    2.48182964886954
O         1.77210896093745    1.19607142974123    2.96145915460406
C         2.20339596517143    2.40022276839202    2.25584130003848
O         3.39810656900372    2.21081292105604    1.45819735062966
C         3.43113161635456    1.48340905159724    0.19420046385694
H         1.09690975821641    1.05079901041903   -1.09370500917357
H         0.73056379595529    1.81524293600041    0.45885215565013
H         0.15936213001266    0.25215730279315    0.10331004445602
H         3.69006330057209    0.30603536250654    2.34707972468291
H         4.05902168376904   -1.02551475249692    1.33329039540338
H         2.35355063062958   -1.08052635692595    3.61555032406594
H         2.58122596756928   -2.43297475013398    2.44248528056709
H         0.12204867719396   -2.91723953552224    2.33723795805370
H        -1.18573333043583   -1.85618148725886    1.86813088198703
H        -0.44754075034289   -1.70752601216775    3.45351677905532
H         0.17901714625460   -1.76934152938192   -0.13684881428752
H         1.57220214223103   -2.61172040529690    0.71790770647341
H         1.88261860142202   -0.74625611340676   -1.47070753974732
H         4.11068053769171   -0.19636569054031   -1.82351819247061
H         5.19331098799009   -1.52359247507248   -2.00781931184987
H         3.48409551303999   -3.31376624978012    0.52683246596370
H        -1.11850732492113    0.55164954994233    1.99336024192975
H         2.61792305077671    3.00237699898438    3.07108004595742
H         1.38891550773680    2.92973434324641    1.75219079570570
H         4.48161040797824    1.22568050073687    0.04332398956517
H         2.96281302967818    2.19973514962947   -0.48970704975803
