38
 energy: -53.120688914006 gnorm: 0.157418639338 xtb: 6.4.1 (79825abcba525fcdf90b791dcacef51065a7a4e7)
C         1.09046972693438    1.14918180052379    0.03071481840733
C         2.49863335555143    0.36209605117637    0.36313042357718
C         3.36696178493325   -0.41283351042264    1.62580829057468
C         2.45094874036969   -1.46887620426057    2.33553796234085
C         1.03812238268603   -1.16068991113881    1.90567848710307
C        -0.00376183172698   -1.97935251871223    2.65611700481668
C         0.94318235231244   -1.47309138053800    0.23766132223993
C         2.18710332906105   -0.84304359544525   -0.52227567783274
C         3.33700276754030   -1.80315344310653   -0.78063516487678
N         4.42928300387052   -1.18377024206099   -1.33117513359065
N         3.51081640553049   -3.03325815187112   -0.39649665588603
C         0.73176310213408    0.36115429428593    2.43977866668699
N        -0.43217106386686    0.91960072587218    2.59480184842762
O         1.77044874388724    1.08562782932355    2.82757795496979
C         2.29548078328760    2.38007000679415    2.40020660522367
O         3.40689107734037    2.28914244737934    1.47503380402207
C         3.41119201700124    1.55712674837714    0.21327721978429
H         1.12242881788517    1.20308173358350   -1.06211269607219
H         1.09677969221483    2.23644895081825    0.20551347180798
H         0.15471676827242    0.74384767377254    0.40030608714672
H         3.78835611384417    0.31410706329119    2.32490017043424
H         4.21333121790950   -0.81875639503899    1.04860414198206
H         2.55000014322139   -1.39543642753462    3.42260860102291
H         2.83557789776395   -2.41820113027894    1.94145887974679
H         0.44088321164562   -2.97071009817792    2.58550889449519
H        -1.00393368154222   -1.95094250518155    2.18988239903323
H        -0.08140900953794   -1.67187782665275    3.70475703870813
H         0.07886758702069   -0.90928991800812   -0.12990818684554
H         0.79756361112430   -2.56646403982674    0.19975860968333
H         1.81089531678242   -0.71035249333991   -1.55129387789025
H         4.40874854502287   -0.41871924807190   -1.97770504646470
H         5.25954037514917   -1.75907632027908   -1.41881133139017
H         2.68199931218276   -3.43246009795640    0.03920302105638
H        -1.23046125611974    0.29914988251720    2.46231701134380
H         2.65365430197251    2.62981884560363    3.40438481574262
H         1.48267366641295    2.91050960542488    1.89483231427681
H         4.45041128354545    1.25578069269558    0.06526616322147
H         3.13539741094809    2.15931941941047   -0.65934880162234
