38
 energy: -53.124092319144 gnorm: 0.159270599760 xtb: 6.4.1 (79825abcba525fcdf90b791dcacef51065a7a4e7)
C         1.05701550011839    1.02009316098008   -0.06556876779803
C         2.50200304884635    0.31611606432255    0.29409238057231
C         3.32155308716293   -0.23080331782557    1.70053555726735
C         2.50045529048025   -1.27487959326876    2.53343736834430
C         1.08299000150853   -1.06774688231467    2.06044212358010
C         0.04643905008553   -1.89695874267347    2.80667197072883
C         1.24240371567017   -1.66960740707292    0.47891098624396
C         2.32766431789964   -0.99752558316765   -0.46571554749049
C         3.48524155971455   -1.91919791769378   -0.81408930131929
N         4.70822914607909   -1.31852309823766   -0.96672295336006
N         3.41446122370173   -3.18118980297572   -1.11953616611174
C         0.63794166176120    0.49131370068687    2.31810646335411
N        -0.54235476395835    1.03018080272209    2.23348988901541
O         1.60655766747754    1.16399709814129    2.92093162302730
C         2.07414119122433    2.42401956437122    2.34857288997474
O         3.08605548584860    2.43706862295172    1.31160396215409
C         3.38898189575678    1.53621716559252    0.20498867336740
H         1.12843379766863    1.09777056016033   -1.15509353203991
H         0.85170482353287    1.97818762834804    0.43707102004646
H         0.25040606703988    0.30352696586147    0.04597124906304
H         3.76154471814532    0.55926437590856    2.31449454602680
H         4.07230859322770   -0.88189702022815    1.22438179564896
H         2.58380953139621   -0.90366943329992    3.55919672345759
H         2.84500929979734   -2.31639966510532    2.50222509830317
H         0.39644075327635   -2.92418957846857    2.89487732509161
H        -0.96375638383603   -1.88342071745056    2.36187147860557
H        -0.10347447990136   -1.42451450045868    3.78367661276694
H         0.31779916108616   -1.85152963427087   -0.07968560886594
H         1.51522816589051   -2.72110711017515    0.67389921269334
H         1.83011210919488   -0.82068856374299   -1.43483283431270
H         4.82115066133026   -0.32336486173947   -0.99191085440606
H         5.46833672825941   -1.80033382119431   -1.43371264738028
H         2.50815717597262   -3.63623217943323   -1.03188012380734
H        -1.24873272834453    0.51082491841609    1.71283803467843
H         2.62084105076553    2.81664284322612    3.21228746045376
H         1.13226182939820    2.94711187702447    2.15709846408322
H         4.45016577980920    1.28280792892246    0.25362938709288
H         3.13350889693688    2.23096991994834   -0.60261705268092
