38
 energy: -53.129388545401 gnorm: 0.147792327795 xtb: 6.4.1 (79825abcba525fcdf90b791dcacef51065a7a4e7)
C         1.14032256335066    1.15146060950429   -0.03766002226235
C         2.53176353013385    0.37205071599387    0.37385079341608
C         3.35848672606027   -0.32644615097893    1.70707858205247
C         2.45625140660003   -1.24672060540188    2.59987677762735
C         1.07175098504338   -1.13915721705721    2.01044910940293
C         0.06087309401045   -2.08902743338321    2.63874968014474
C         1.11879387968856   -1.63216005694023    0.38452638409398
C         2.25960622159686   -0.89359030131889   -0.43697573948113
C         3.45175933861721   -1.80282463949765   -0.68776067560913
N         4.51591239758955   -1.40842592734047   -1.45706803534948
N         3.47391106186196   -3.08546037394804   -0.47495551701856
C         0.66534232738396    0.41586706977150    2.34490429394321
N        -0.52574842593740    0.93691712653525    2.32376190640292
O         1.68255306032538    1.09729590237416    2.84993413032861
C         2.09246793331489    2.40040135442706    2.33246775796156
O         3.08760652023985    2.48753438864292    1.28291909672004
C         3.38406701752524    1.60177034481194    0.16246009196984
H         1.37278069757293    1.36041972191131   -1.08670619268596
H         0.94125098174199    2.15396337572726    0.37234356574969
H         0.22626724730147    0.57446331279496    0.05236251615868
H         3.80986909209532    0.46497131886582    2.31094742472054
H         4.10956023808543   -0.96107426450553    1.20967033502322
H         2.47229858596137   -0.91767575895961    3.64314046819994
H         2.81026415814612   -2.28540319203472    2.58347000786593
H         0.61001449788703   -3.01415249376724    2.80629640470820
H        -0.74135366160631   -2.35926185110099    1.93027867857597
H        -0.34443617664398   -1.68803219890873    3.57424041115128
H         0.12790768872525   -1.43541833079269   -0.03909689413682
H         1.42153386285714   -2.69234055990017    0.43423566601181
H         1.86416135364492   -0.52677399119882   -1.39982930636444
H         4.63424171231082   -0.51766209175579   -1.90008447901889
H         5.27615605753404   -2.06561750932825   -1.59165362392414
H         2.84124485892446   -3.46919500105110    0.22405477124152
H        -1.29784666179637    0.27757435369688    2.22936840889968
H         2.57755004556503    2.95344614325113    3.14356173048872
H         1.18679756394953    2.90079131650430    1.97638375122224
H         4.46068388965444    1.46219359920676    0.28123649682623
H         3.33548029480112    2.15369291471723   -0.78263019178515
