38
 energy: -53.124842928800 gnorm: 0.160423581153 xtb: 6.4.1 (79825abcba525fcdf90b791dcacef51065a7a4e7)
C         1.11899949402195    1.13200679541789    0.06232841192986
C         2.55911935665239    0.38827956135688    0.35533604663478
C         3.20231400957342   -0.41115169991594    1.73231671440689
C         2.32373560492024   -1.34991987112492    2.62944355996940
C         0.95201719583526   -1.13348407258321    2.04005367129599
C        -0.12114748162629   -2.05344252185664    2.60651916655514
C         1.18335714184223   -1.63131575694207    0.43147200962059
C         2.26012685783980   -0.87175214427282   -0.45477507283639
C         3.39702175801340   -1.76501021380887   -0.92423137286248
N         4.12769138721672   -1.34072086574456   -2.00400280295933
N         3.72297416120727   -2.92649539194017   -0.43880541074263
C         0.69612521003315    0.45767904695017    2.35286031568793
N        -0.47776433616265    0.99909697068629    2.49245725287951
O         1.76976425708735    1.10730478440739    2.77642099088271
C         2.30208853914492    2.40316686669547    2.36258795306883
O         3.49693641945707    2.25578043099451    1.55632425161824
C         3.57070169423055    1.50965703374308    0.30502344220603
H         1.31955378968201    1.52009655892020   -0.94134627133541
H         0.83915140315133    1.94020432146638    0.75604740435344
H         0.16673266286361    0.62224258551248   -0.03694587833741
H         3.79300958374259    0.34300349203576    2.25869482975651
H         3.99224559725780   -0.99459605951537    1.23243672685192
H         2.40929436547175   -1.01891232437517    3.66869370202824
H         2.65272046811492   -2.39136546131510    2.52166707953973
H         0.07447797340039   -3.07688575420526    2.29064072472937
H        -1.09907588840811   -1.76157783187507    2.18580952699314
H        -0.06816930283628   -2.06936535873181    3.70066516493303
H         0.21802813985505   -1.72329649592605   -0.07813458906124
H         1.36500171479571   -2.71523001928426    0.53266645578936
H         1.82928317823249   -0.42060487361706   -1.36519129738489
H         4.19676247309367   -0.35926289664014   -2.19293415437647
H         5.02720763391550   -1.80591769626112   -2.05346914713844
H         3.00059740429648   -3.26875790092285    0.19140278739792
H        -1.25195618180303    0.36221125744738    2.30595715739934
H         2.64008506781956    2.91016735790542    3.27239313739201
H         1.54937877957986    3.06146525173808    1.91818273227145
H         4.63260055331878    1.25516358234065    0.28778148536611
H         3.18213910305303    2.24671519323548   -0.40627061216998
