38
 energy: -53.122996582957 gnorm: 0.166547305491 xtb: 6.4.1 (79825abcba525fcdf90b791dcacef51065a7a4e7)
C         1.16847902221734    1.10679579240147    0.01366788830595
C         2.59269528796584    0.36135059478583    0.37262245072881
C         3.29330768550189   -0.36121716826783    1.76398995937405
C         2.39381017548121   -1.34512562941642    2.58912669050327
C         1.01003327788692   -1.18914346994688    2.00889628856041
C        -0.16772187396824   -1.99038233328415    2.54722536663797
C         1.23002671070139   -1.68525425378767    0.39819256612291
C         2.33965145220371   -0.91130685533348   -0.43339757255875
C         3.55869759785884   -1.76507079039690   -0.74298257127513
N         4.39219466186754   -1.22346204728541   -1.68730694358579
N         3.73810313912297   -2.95169664007343   -0.24231910904362
C         0.67490302505312    0.39152956156353    2.29922236862067
N        -0.52225698117823    0.86411046105486    2.48391815856593
O         1.69041675823186    1.14238393546402    2.69805515861573
C         2.15804487956976    2.46979843864883    2.30667284006524
O         3.22935728917315    2.45899030860263    1.33116360705634
C         3.49894976451764    1.56009202282980    0.21438389906698
H         1.35739312642989    1.28984282850160   -1.04887801863840
H         1.17514849494072    2.03304518760473    0.60928674126957
H         0.21359319696396    0.59457459364766    0.06214013504478
H         3.67868979447436    0.39633171043594    2.45126396117994
H         4.08076002154049   -0.88803478511742    1.20126333888992
H         2.40374320003425   -1.07747957941575    3.64987834614748
H         2.71580373781636   -2.39323817954852    2.54184090421312
H        -0.13219980118955   -3.07812440151721    2.51497758448782
H        -1.11039354817469   -1.71904103561741    2.04099461237748
H        -0.22776256500166   -1.81516430812031    3.62699823398201
H         0.27116068029748   -1.77262011583470   -0.12426562222266
H         1.47487405128669   -2.74064865653483    0.60866259758119
H         1.94389709891175   -0.56973767417067   -1.40536816055447
H         3.86559083163147   -0.67448017743284   -2.33925244425730
H         5.04926597541349   -1.90102758615560   -2.05764019775926
H         3.05484429386865   -3.34891876252751    0.39916830768296
H        -1.35657786636084    0.30772613925634    2.29919174696714
H         2.48248845660300    2.92415527187830    3.24865630661699
H         1.27205594281141    3.05432593882236    2.04063534877624
H         4.52734635041348    1.24178865644488    0.39816862999987
H         3.37354398543165    2.08745339255248   -0.73763407175558
