38
 energy: -53.122366327014 gnorm: 0.161440000979 xtb: 6.4.1 (79825abcba525fcdf90b791dcacef51065a7a4e7)
C         1.14306007222346    1.12881863760933    0.02304782237773
C         2.51531645524771    0.28713276405835    0.37148182378877
C         3.23423325186664   -0.52936862893074    1.70014642892966
C         2.27137506547140   -1.45025988674010    2.52651541415371
C         0.91990932106942   -1.06669235492493    1.97674038134215
C        -0.18918676373835   -1.92238150231318    2.57389288939750
C         1.02864980584563   -1.61960161995566    0.37319542944478
C         2.21789509795125   -0.96523237621641   -0.45100138737710
C         3.50098202907021   -1.72106788966863   -0.75633710958070
N         4.19935383680237   -1.03701831599183   -1.71766897034454
N         3.97691305235854   -2.89223145228558   -0.45171150391748
C         0.65368526791688    0.48020500758105    2.45774153053480
N        -0.51941019573172    1.00159504200261    2.66422838998537
O         1.68082257062342    1.16502316020350    2.93746136872573
C         2.35303651707968    2.30876500396496    2.32601351915859
O         3.42509822010826    2.16728740219240    1.36158977002906
C         3.54982971666053    1.36586349861044    0.14913071702114
H         1.28083311821826    1.47196442016146   -1.00722792980207
H         1.30124549339746    2.10480433899998    0.50799476088667
H         0.16294065231404    0.66678798151816    0.07224805605176
H         3.63969088581722    0.28853015322285    2.30130442594380
H         4.03178480569719   -1.07640131813767    1.17199304329707
H         2.48902882667716   -1.20689201875662    3.57070221839316
H         2.62842079696788   -2.48393161184229    2.43433711155543
H        -0.07634631360176   -2.97671768783173    2.32665453781878
H        -1.17482663011549   -1.72238297218438    2.11887617398054
H        -0.29612003015505   -1.82017739597509    3.65940442348148
H         0.16462654915451   -1.40048569052913   -0.26357098405861
H         1.18486200889405   -2.69602859946832    0.56029947774621
H         1.84097830834199   -0.71299857077977   -1.45714735662896
H         3.96525219131799   -0.08752644737757   -1.93535506718007
H         4.99738943081738   -1.43308489774217   -2.20166788203700
H         3.44641002659538   -3.39189720837015    0.25894653772604
H        -1.32729225153822    0.40658264170482    2.48238906310735
H         3.00020935052454    2.75637663533735    3.08749088776087
H         1.57978155110874    3.02704477342435    2.03691892944132
H         4.55309702182468    0.95653825188039    0.28551609861881
H         3.46355832607268    2.05290275363536   -0.69981520027996
