38
 energy: -53.119897610953 gnorm: 0.149280139077 xtb: 6.4.1 (79825abcba525fcdf90b791dcacef51065a7a4e7)
C         1.12598421535379    1.05952428723969   -0.14086396638890
C         2.49399789662825    0.29526701455210    0.36646067355677
C         3.21367253719940   -0.48372684291510    1.71705404197032
C         2.35634436871025   -1.39029220375509    2.66634321109672
C         0.96698319462654   -1.15463414833082    2.12784799505152
C        -0.10878576514275   -2.04288454349491    2.73827530957928
C         1.18316350402468   -1.67699832188796    0.52494710354630
C         2.27767273191514   -1.00352380628236   -0.40794380748843
C         3.49116559072666   -1.82692556992712   -0.80828598581641
N         4.18721445412766   -1.05213376817239   -1.69992468228148
N         3.98848219185056   -2.95539028913158   -0.39576358381127
C         0.73765480118023    0.45031292536722    2.38607686474590
N        -0.34610562583523    1.11375269610092    2.11048958149455
O         1.68461116950128    1.18767919002672    2.94615068122551
C         2.18503795325588    2.39186412696952    2.28782162494276
O         3.36932131372836    2.23064050815481    1.46872135839370
C         3.41402308687447    1.48449004846699    0.21606162591762
H         1.32620557580321    1.25529488438157   -1.19906236048958
H         0.88782234318519    2.07975832196680    0.19846724404346
H         0.19018411938728    0.51189106013143   -0.17091537211469
H         3.80080638023042    0.16913454474856    2.36804643118427
H         4.00784379681947   -1.08948239154898    1.25161719160608
H         2.39063778451863   -1.00394748227155    3.68932360065589
H         2.56123830496615   -2.46632195583908    2.73441795391328
H         0.21443612840242   -3.08257476740536    2.73076516346486
H        -1.08701775324255   -1.82704802065889    2.27459186467247
H        -0.24203990205355   -1.69607307853104    3.76889688701682
H         0.28853005829791   -1.47820447782035   -0.07516242696376
H         1.35635700406531   -2.76628853752263    0.56439375825842
H         1.73141764669469   -0.97282528215678   -1.36642220250032
H         3.76541821776490   -0.21475591454831   -2.05292876785996
H         5.14658034380167   -1.15989938761164   -2.00974421791809
H         3.36333046438696   -3.28105232077096    0.33858220639031
H        -1.08729561982342    0.53140817626710    1.72152818791483
H         2.63455348262877    3.03576215951243    3.05095185156451
H         1.29353689383709    2.86279949031524    1.86253290321835
H         4.46754127178988    1.20898658113702    0.13305154683270
H         3.03376789155414    2.22541658977922   -0.49570287180638
