38
 energy: -53.127761381001 gnorm: 0.152940376955 xtb: 6.4.1 (79825abcba525fcdf90b791dcacef51065a7a4e7)
C         1.10538824078517    1.09882118390470   -0.08765969210709
C         2.50415393087903    0.34383398527934    0.34405524214168
C         3.32237569319488   -0.36268350310295    1.67830097102531
C         2.40961961335745   -1.27565947065454    2.56789272477926
C         0.98476903424443   -1.09854362363240    2.10500280686805
C         0.02631179710860   -2.08354025874585    2.76076989793437
C         1.13491250283162   -1.64934190772921    0.50407566057225
C         2.27640474941845   -0.98361708525530   -0.37661141892317
C         3.52590479105365   -1.81313699843384   -0.62455414057805
N         4.34600448416999   -1.18838908701687   -1.52839729989261
N         3.87742645117656   -3.02772143961497   -0.32099473736973
C         0.57711709944727    0.48539193339256    2.24676608437238
N        -0.57132432895980    1.09386738638125    2.28520099946835
O         1.63547746130544    1.09981590022315    2.75319930354811
C         2.10326554081130    2.38879925722516    2.24963034281559
O         3.25289677751901    2.32641210806017    1.36991377223862
C         3.43047158100676    1.52411524325948    0.16464115006382
H         1.44822693409626    1.30599092060037   -1.10635537611001
H         0.95410123411982    2.09303033350480    0.36112159862369
H         0.22343250009550    0.47088622488744   -0.02148702651320
H         3.83564964615010    0.40121760491601    2.26800443741975
H         4.12598500713387   -0.94939193181688    1.20473521625064
H         2.55531543026615   -0.90047757719289    3.58521196196467
H         2.65064964932694   -2.34614936288256    2.54760393026872
H        -0.05347310534267   -3.05894320393262    2.28358228821735
H        -0.98570097443801   -1.68492382707181    2.57245989243125
H         0.33276236398938   -2.27741879030447    3.79455655459011
H         0.23052332588478   -1.40512899073124   -0.06377969830366
H         1.29383784055075   -2.73559872761762    0.61762767316508
H         1.88339311970535   -0.89079895416726   -1.40371632814300
H         4.27671380439361   -0.21861809766062   -1.77020020568362
H         5.13603050298122   -1.71446484221597   -1.88489088384270
H         3.16366316323363   -3.54837385552158    0.18457148381239
H        -1.34644587451894    0.59530316118556    1.84885364711336
H         2.54476733034223    2.80950225782105    3.15909270587723
H         1.28647093535580    2.94293555455261    1.77718533096373
H         4.46549798688357    1.17577452948913    0.17315524790478
H         3.11464227578026    2.12886368917418   -0.69250879044046
