38
 energy: -53.130354955384 gnorm: 0.164757776303 xtb: 6.4.1 (79825abcba525fcdf90b791dcacef51065a7a4e7)
C         1.11475492439310    1.07336792320840   -0.08945798625809
C         2.54267466451813    0.37072184162413    0.33511545819777
C         3.27364701695864   -0.29356369894525    1.73984661846968
C         2.40786497668943   -1.23910026626411    2.64229016217146
C         1.03006433392635   -1.12995663730970    2.03765028882864
C        -0.00706981840338   -1.96599874536837    2.77540059772004
C         1.17130753807483   -1.67696543200833    0.43461525462499
C         2.34103131297396   -0.96806472845201   -0.37223660296277
C         3.53733053277290   -1.82099136972512   -0.76238216392868
N         4.34722080943818   -1.35143195139248   -1.76407952560722
N         3.70983250752742   -3.06634612635354   -0.43031927101085
C         0.61116548743735    0.42478212362372    2.35771278099885
N        -0.58367343262019    0.89510794034729    2.15328441454865
O         1.60235790264732    1.13688161672693    2.87207645964697
C         2.15591161059810    2.37027984139702    2.31872974397931
O         3.30699559284256    2.38679673539324    1.43885575788672
C         3.45961670541312    1.56810144080051    0.24121642785704
H         1.35637842024043    1.42661761675053   -1.09694560525043
H         0.87696279829815    1.92794105388459    0.56315515384796
H         0.28221566341166    0.38560475138624   -0.19137589773764
H         3.61902056974329    0.56234231530831    2.32541236810650
H         4.08436067510809   -0.83545326738595    1.22664266035042
H         2.51688185070980   -0.80574142030425    3.64091051025994
H         2.70294435099819   -2.28740952564508    2.50652713623392
H         0.09952163381017   -3.03605961091173    2.60483515259464
H        -1.00884495801121   -1.82080745356050    2.33506932060190
H        -0.08396496948591   -1.79376103163069    3.85458408552721
H         0.18103236811593   -1.37949360375999    0.07283486253325
H         1.28921835729979   -2.76853724567750    0.54719066541745
H         1.88158427377322   -0.73301634267484   -1.34777672840351
H         4.27370558042581   -0.37848668948322   -1.99145289211506
H         5.25771975125773   -1.79661835780649   -1.73605754433334
H         3.10293823916333   -3.45119409111660    0.29058680136256
H        -1.24452834363053    0.21295085424000    1.78218979536275
H         2.52766587986303    2.95711700561521    3.16516788998208
H         1.41166416926324    3.01441160325726    1.84059297178331
H         4.48517616192562    1.19282709233133    0.23171037530120
H         3.35286789721869    2.19746964558022   -0.64910665825504
