38
 energy: -53.134001326630 gnorm: 0.148514770384 xtb: 6.4.1 (79825abcba525fcdf90b791dcacef51065a7a4e7)
C         1.20148238974259    1.25132249931610   -0.07279507349176
C         2.54179210804604    0.40233036727933    0.36959741234991
C         3.29540381660617   -0.43764514075387    1.66396057693308
C         2.42229860659252   -1.48897147390112    2.43235012825667
C         0.98669461734620   -1.19344112007717    2.07522371461731
C        -0.16366016097212   -2.02503804408493    2.62660341836632
C         1.08655665253801   -1.50917720787030    0.40812208002245
C         2.24129176141106   -0.84635076268600   -0.45735568783368
C         3.41443784487673   -1.77008950881110   -0.74242451203240
N         4.24762903661233   -1.22774646118799   -1.68659736560401
N         3.63327614001219   -3.00450665445001   -0.39709094925456
C         0.73243539934052    0.40098139390548    2.37237336271440
N        -0.41326684846456    1.00966840009598    2.28574865024692
O         1.80441338697926    0.98624991008557    2.88466432463534
C         2.23749500902773    2.32901330384826    2.50609827256457
O         3.38036028359409    2.38172080118103    1.61698283636610
C         3.50286375093161    1.56757382929648    0.41280147462786
H         1.43911538271847    1.33409016796336   -1.13810190097812
H         1.14027090236978    2.28480365791531    0.30259017252197
H         0.21617213609059    0.80662196308890   -0.16185791892963
H         3.77256806694446    0.24666512671138    2.37020343060875
H         4.04847726246149   -1.05103882778891    1.14347253062036
H         2.70387091731573   -1.35465654476388    3.48097002301267
H         2.72728849691426   -2.48695164785382    2.09253773086143
H         0.14658782960309   -3.06507797784287    2.53972601330486
H        -1.04557407748350   -1.85595405210176    1.98460340545479
H        -0.35056633903916   -1.81094893459397    3.68464293711708
H         0.13957421247725   -1.26030888465332   -0.08310929115733
H         1.13249829493446   -2.60670771767757    0.30125134588194
H         1.76148296595556   -0.56630304089661   -1.41096705236196
H         3.83255912995911   -0.58257260228659   -2.33095230310305
H         4.86493511002725   -1.91965849381545   -2.09668935886219
H         3.06013685303475   -3.30927881673487    0.38697503146052
H        -1.21656190757183    0.49279172325200    1.92890938767992
H         2.64423832241430    2.78463787715567    3.41494520936066
H         1.29406491304569    2.78582017055003    2.19194561381523
H         4.57245088022005    1.34768029008671    0.39481273800022
H         3.41739245841179    2.24545403918792   -0.44355588054959
