38
 energy: -53.122778855944 gnorm: 0.154153791192 xtb: 6.4.1 (79825abcba525fcdf90b791dcacef51065a7a4e7)
C         1.09301700718459    1.14061890569428   -0.02968102713086
C         2.48982898197718    0.31884708292459    0.26448948624416
C         3.29028447494877   -0.35004838053256    1.62856988829212
C         2.41044979049212   -1.28418643443654    2.52929143476552
C         1.02094080351771   -1.09322617306721    1.97374194477837
C        -0.02832589936430   -2.02973540082603    2.55759037956187
C         1.07682085865324   -1.54447917406356    0.33601862367941
C         2.24247241668714   -0.94343283600013   -0.55941623461199
C         3.47851073774225   -1.82706873421083   -0.60659823720860
N         4.43806038263273   -1.20804969436555   -1.36546966165126
N         3.73668038184269   -3.01947050835052   -0.15664533270074
C         0.67813551798582    0.44010155326183    2.44968248208108
N        -0.56304980647545    0.81906472986423    2.53020105603094
O         1.70852390084516    1.16280882677630    2.86212885933034
C         2.18324082662765    2.40713967570373    2.26198718087409
O         3.25412856537675    2.28082845646111    1.29415956633861
C         3.42863169311186    1.48870451415369    0.08173081478549
H         1.15500050313971    1.04694672098049   -1.11852543003917
H         1.24790986052390    2.20508191229909    0.20626590461394
H         0.17291122009597    0.76317283331967    0.40329341005094
H         3.85965074974699    0.31253239621158    2.28549757979332
H         4.03397925862835   -1.02861815256490    1.18052929955235
H         2.42365535799838   -0.94520916496843    3.56941026555639
H         2.78325979538074   -2.29332435348857    2.31224514720507
H         0.45902750719940   -3.00084262351225    2.62774721849283
H        -0.91685210340739   -1.87478593777363    1.92116487666505
H        -0.22503716684815   -1.70647050511096    3.58570524636780
H         0.13810662160504   -1.40110373028534   -0.21013016078189
H         1.13440143346451   -2.63907872697786    0.46502058465822
H         1.85678784389280   -0.80862593829771   -1.58464418691488
H         4.15608875428326   -0.31940291207391   -1.73224550727810
H         5.38128107079560   -1.52589269219248   -1.55858892011241
H         3.06060236827118   -3.36018999194733    0.52376846113459
H        -1.15455610501687    0.10935143817562    2.09868505402641
H         2.58959827272731    2.99275269418303    3.09323181475387
H         1.30669074666099    2.93646629499357    1.87611410018299
H         4.47949398585109    1.19436267668251    0.12350076081713
H         3.14862432147086    2.02189527336651   -0.83340761295663
