38
 energy: -53.125229121547 gnorm: 0.141543685608 xtb: 6.4.1 (79825abcba525fcdf90b791dcacef51065a7a4e7)
C         1.23965657466229    1.17385136815308   -0.19494924483110
C         2.51123349243946    0.31550936240684    0.40444212736128
C         3.17222462442718   -0.43012136308353    1.80300960267141
C         2.27463179359389   -1.18234072683185    2.84537009413497
C         0.95841945308891   -1.08728864978073    2.11435267207490
C        -0.02530230456144   -2.04902380218400    2.76722794733101
C         1.31506051241588   -1.74444510347730    0.58797065121101
C         2.28700731049563   -0.96540113304394   -0.39702362635875
C         3.45849798967742   -1.81230278855278   -0.86733882570876
N         4.46860924875799   -1.07940648849868   -1.43509243740113
N         3.55853203747852   -3.10582420772130   -0.95524032607225
C         0.57292542791778    0.50692784985387    2.18504136855728
N        -0.62891444137331    0.99853475087308    2.25242777138831
O         1.59089984319241    1.19382479373557    2.68104412309574
C         2.20652353010326    2.45724150166408    2.28270864090103
O         3.39509238687863    2.29452803566920    1.47013632485143
C         3.53954758543374    1.41887829192835    0.31243801770102
H         1.54343170364320    1.35057542386090   -1.23162076200609
H         1.15099218930912    2.08955506666486    0.41033548264152
H         0.27539816614745    0.67953219672919   -0.24374812136319
H         3.80431865986385    0.26960433955597    2.35580820803308
H         3.85923854523825   -1.11511144692870    1.28043933169193
H         2.16776715684693   -0.83383051828650    3.87689698756248
H         2.56123123920886   -2.23442425444928    2.96961476494333
H         0.41913048697267   -3.04192685061030    2.81313640325940
H        -1.00786768252025   -2.03424634068617    2.26436368333894
H        -0.27977728773702   -1.72813683056686    3.78334296058877
H         0.40978027687892   -1.93327304373579    0.00074741106507
H         1.81805446028095   -2.67962150646627    0.88888158717393
H         1.78766579273727   -0.77105650556949   -1.36185835453963
H         4.35684640119796   -0.11042803249685   -1.66381810713316
H         4.99942751719307   -1.70051698014326   -2.03545750515295
H         2.73629672453136   -3.53500021423728   -0.53587029521478
H        -1.32048266605858    0.27789431890401    2.04702700592556
H         2.63683025136174    2.89851610410955    3.18777740911900
H         1.42013372014054    3.07760893892438    1.84207267434736
H         4.60121525837630    1.16576647798910    0.35103268491623
H         3.36547059465021    1.99772781272635   -0.60123877427336
