38
 energy: -53.122452276735 gnorm: 0.164605204645 xtb: 6.4.1 (79825abcba525fcdf90b791dcacef51065a7a4e7)
C         1.14441424109935    1.11030913498138   -0.03003527930004
C         2.58747600205177    0.40218668294806    0.32921987538981
C         3.31952891985716   -0.38468313087280    1.66854803244254
C         2.41821536549986   -1.33351720227295    2.53189620496315
C         1.00539218706019   -1.11216327126192    2.05151154568969
C         0.02560226228807   -2.07493861477991    2.70875161382661
C         1.08229051214452   -1.51833996857940    0.40287673946154
C         2.24402521682200   -0.86126352549951   -0.45760386605189
C         3.33081128893027   -1.83681403002958   -0.87953573256753
N         4.47543272613181   -1.23683585225160   -1.33743732954219
N         3.29175108896779   -3.13370535937110   -0.96601318027276
C         0.70477197672833    0.45447197360746    2.43933927383358
N        -0.49080109476918    0.95338941794478    2.55035182244702
O         1.78732781048111    1.14482048559496    2.76431601016884
C         2.23712480849551    2.47685613492840    2.36776945478575
O         3.35780013167191    2.34961762405267    1.45818572291093
C         3.53320004648479    1.57681731218921    0.23347771187340
H         1.44464240139250    1.45655828015057   -1.02410426444422
H         0.79449347977390    1.96027653819392    0.57647532540297
H         0.26891071661378    0.48661585062222   -0.17504330709243
H         3.78027424069736    0.37396121350064    2.30644908215638
H         4.08553063112997   -0.93129860282555    1.09519635693065
H         2.38559031551586   -1.12469612195641    3.60532833154705
H         2.71654139292697   -2.34938487662614    2.24298412277752
H         0.30248324580352   -3.12001034126735    2.57973002466315
H        -1.01945854988267   -1.92866913637401    2.38474743405712
H         0.08349310646684   -2.02569002211652    3.80165550852090
H         0.03196961149159   -1.41793704947115    0.10831824953874
H         1.15790965709416   -2.61512338246322    0.50010383019918
H         1.72250716926017   -0.70503589296547   -1.41761934040405
H         4.89328016763383   -0.33636601085112   -1.20222197065752
H         4.97128555812083   -1.97336430252343   -1.82696802992556
H         2.44539860258164   -3.56035562252485   -0.59481081135532
H        -1.23150016143332    0.33337354337808    2.22366554254286
H         2.73771706228242    2.88029636053087    3.25415538189312
H         1.33386667702175    2.98605767120850    2.01810776262363
H         4.60396861312998    1.40665638126626    0.36460105454064
H         3.21872791560975    2.18287675282840   -0.62324516550674
