38
 energy: -53.125830317296 gnorm: 0.160001677581 xtb: 6.4.1 (79825abcba525fcdf90b791dcacef51065a7a4e7)
C         1.07568018244712    1.07558943941882   -0.00956538483775
C         2.48359380060065    0.29220547722425    0.33251315429063
C         3.24484253124499   -0.36216863652171    1.72576846911870
C         2.37280635644922   -1.33121334835657    2.59670333130732
C         1.02948026723231   -1.09159505359712    1.95335710111521
C         0.02946077828694   -1.97619907721017    2.68569983981646
C         1.10150144854241   -1.65120198397474    0.35006593778134
C         2.26930286129916   -0.97756873557349   -0.48913721376953
C         3.52193716534662   -1.79873642329344   -0.74879114255936
N         4.67381733531419   -1.22503648412152   -1.22191518176747
N         3.61643143261186   -3.08803932059375   -0.60843432269903
C         0.64402505701923    0.45037902136677    2.36429384088545
N        -0.57476802306973    0.87033926506307    2.53404118017835
O         1.62299986416168    1.23676855454546    2.78538512746066
C         2.11745240379545    2.47186564616893    2.18211295281177
O         3.23626521010336    2.41312213127384    1.26328082982692
C         3.39209392395633    1.48552508326897    0.14830267589701
H         1.23435388590092    1.18572841602587   -1.08701172995937
H         1.21265835829432    2.12729870028399    0.28689516070305
H         0.16952796546184    0.54654910237585    0.26526464247741
H         3.69567940968134    0.54017788372473    2.14679353433203
H         4.08292832773784   -0.95012322590977    1.31809110408447
H         2.41507712487787   -1.12594952107294    3.67048501118081
H         2.79331816465832   -2.33993917118898    2.49621572609923
H         0.31946929354918   -3.02192421731039    2.59716423673657
H        -1.00743247016971   -1.92130712780290    2.31104689526667
H         0.08890685570668   -1.72076966701380    3.74939043142506
H         0.10675164876747   -1.44297668449469   -0.05875492182857
H         1.33228558041921   -2.72329506723168    0.47440544279932
H         1.87040805547847   -0.64202352779260   -1.46192197465865
H         4.53470079101140   -0.26362281383423   -1.46697835793592
H         5.49042492867223   -1.80647593429881   -1.37378580526584
H         2.80921155546577   -3.55906494137652   -0.20511669581116
H        -1.33284743268943    0.22834331877754    2.30396397145745
H         2.62115757158522    2.98998195545452    3.00483600536956
H         1.25516897894003    3.02532764797562    1.79796213298417
H         4.42939002030372    1.14837569982245    0.09316192249943
H         3.26529261538349    2.10919047958993   -0.74340229278087
