38
 energy: -53.124609339551 gnorm: 0.158191615876 xtb: 6.4.1 (79825abcba525fcdf90b791dcacef51065a7a4e7)
C         1.12496115498845    0.99197433241933    0.06620615451620
C         2.63273915463684    0.38182031885765    0.32552547258757
C         3.30271131902737   -0.33693434028685    1.73385587783038
C         2.34483602925669   -1.30253677883619    2.51366940886300
C         0.96637537524533   -1.07907929240487    1.94292490634148
C        -0.12155709237714   -1.98206137059227    2.50853561341288
C         1.22483986996795   -1.64560178301012    0.36142627326124
C         2.36726327878306   -0.90404613979610   -0.45513225609434
C         3.52745788129046   -1.83494679419215   -0.76850379683416
N         4.16661048419623   -1.60249837557520   -1.95899008969437
N         4.06661847480051   -2.76677953138917   -0.03917205891721
C         0.57578210383142    0.45186798410823    2.38875687057102
N        -0.60896404752065    0.96744241819171    2.53434845478923
O         1.66472926838181    1.11182054724965    2.75313957605177
C         2.14669623900864    2.42193867580120    2.32280970264742
O         3.32220977262177    2.36145959159241    1.47785077464540
C         3.47274817071758    1.63366592975732    0.22264173400932
H         1.18870978032846    1.26754595161054   -0.99124122454396
H         0.91292256581768    1.92045027853433    0.61912233102794
H         0.21967572095138    0.39784298288269    0.12939859347316
H         3.71902815931836    0.36732183795259    2.45873432465344
H         4.09947043992540   -0.95429143083630    1.28851963883717
H         2.25140885864753   -1.12494088105815    3.58914987254751
H         2.51553039120969   -2.38344683818776    2.43028706293915
H         0.18335142404695   -3.01841713664917    2.64448443500129
H        -1.08513434142744   -2.05177714248646    1.97450924357091
H        -0.49774731339200   -1.56436814650820    3.44887011959885
H         0.29766416293439   -1.82426130680750   -0.19395235114474
H         1.59001769896059   -2.67655697273591    0.50935115830412
H         1.85283208428154   -0.67359692753875   -1.40395867123155
H         4.06611826843062   -0.66692704165135   -2.30298604794686
H         5.11366785675350   -1.94121208279778   -2.08681750783804
H         3.51869180252782   -3.02068033929496    0.78024536882413
H        -1.47869388707929    0.52620562517809    2.23659217135788
H         2.64534211632687    2.89249485304404    3.17660464512191
H         1.37019943434251    3.08545899335434    1.93010338805393
H         4.55654412637049    1.50403293351446    0.18693443670296
H         3.30677446172948    2.25771835776629   -0.66233631126525
