38
 energy: -53.128748722181 gnorm: 0.157117526021 xtb: 6.4.1 (79825abcba525fcdf90b791dcacef51065a7a4e7)
C         1.14052375739652    0.99353843372919    0.01629797275420
C         2.59895029832410    0.33664569644850    0.40925201632826
C         3.29446905445694   -0.43771522789489    1.77507935317452
C         2.35218919855436   -1.35657706767800    2.62703233143973
C         1.00678788082283   -1.11563568204990    1.98853500612916
C        -0.21037098768903   -1.93048342956913    2.40499219922926
C         1.22748871026685   -1.62149840704999    0.38096428794120
C         2.39534868596114   -0.91999331806182   -0.43499988998000
C         3.60814673509733   -1.79335006864071   -0.71284544640963
N         4.29016260446402   -1.35360511526244   -1.81796293476695
N         3.96055701006870   -2.85786908423729   -0.05440984440861
C         0.65492735952955    0.45566902599612    2.30841702063746
N        -0.55472681630356    0.90878292587948    2.45694960329301
O         1.62838479437580    1.21346616499465    2.79033214375753
C         2.11471812306368    2.47794818243063    2.24402582210238
O         3.35037365798826    2.32304725235143    1.50334607800920
C         3.51414909219477    1.53291370045185    0.28812521489225
H         1.28677386854416    1.36133700454179   -1.00425760025628
H         0.73258660118437    1.78692674282503    0.66194997510201
H         0.27487913654972    0.34116123506463   -0.02358240690533
H         3.71203140224672    0.36093909923315    2.39357607395821
H         4.09232603177244   -0.90356594361611    1.17450746469293
H         2.33863153146828   -1.02086585489043    3.66820538726571
H         2.84704638964099   -2.32077800146023    2.45414899115739
H        -0.00524444468639   -2.97952705386539    2.19783250557235
H        -1.07920047796501   -1.61405756708543    1.80205309580447
H        -0.37377385391256   -1.75285734925577    3.47361943782439
H         0.25977166024522   -1.52433788219446   -0.12312200273910
H         1.42240613705485   -2.70028769422957    0.50873786600369
H         1.98984570316875   -0.59414987022381   -1.40835040916844
H         3.64818719127587   -0.97426524937446   -2.48706267556500
H         4.98665234527787   -1.98447408479543   -2.19860827659156
H         3.37180859582487   -3.02494820703278    0.75897447546809
H        -1.34265664868152    0.26739078735406    2.36999320307001
H         2.49171244147699    3.01212116088600    3.12241704741937
H         1.29950017674778    3.06805434799446    1.81435250061281
H         4.56804469381709    1.24863550928668    0.32252545144379
H         3.20881983323103    2.19031516239820   -0.53331998738972
