38
 energy: -53.127276246468 gnorm: 0.157107366330 xtb: 6.4.1 (79825abcba525fcdf90b791dcacef51065a7a4e7)
C         1.18528934905077    1.17482245753313   -0.01291489232150
C         2.55926510674043    0.35307135995184    0.37418283496513
C         3.31098373100759   -0.52006961942672    1.64752858681479
C         2.36472178295333   -1.47498891269544    2.45421299134892
C         0.96377369031918   -1.10357593987121    2.03560444944130
C        -0.18715332654949   -1.95370956028593    2.55668885276324
C         1.07604168647133   -1.56949892350653    0.40489871157438
C         2.22292698789944   -0.88534800104449   -0.45440067213364
C         3.45236499442236   -1.71653435205391   -0.78370399281212
N         4.31336857052452   -0.98638217341619   -1.56175061741038
N         3.68061313850373   -2.96593271764079   -0.50470996869192
C         0.68307894693838    0.46674915477058    2.42344247759907
N        -0.53082795629045    0.92385657460894    2.51355452694002
O         1.71810478837365    1.08253125362550    2.97448872429702
C         2.31983945111086    2.27665099218491    2.38637401576040
O         3.49403931569843    2.17524356311120    1.54351187958105
C         3.50478478215364    1.52390452431734    0.23831566951699
H         1.34155687743750    1.35537380997176   -1.08117526794956
H         1.03230363839945    2.15377985543361    0.46769099720235
H         0.22341839816505    0.69313369553383    0.12603569836202
H         3.88239357299028    0.16446423973916    2.27970689859308
H         4.03735784722598   -1.16957683668897    1.13294113247392
H         2.52248235899039   -1.21527090059773    3.50520552650383
H         2.63499673907916   -2.52175995505608    2.26532796351249
H         0.01352000367926   -3.01630087726806    2.42974611061393
H        -1.17005757717601   -1.70227206584318    2.12171301256940
H        -0.35280516556693   -1.63453333848232    3.59153265721877
H         0.12252548779492   -1.50553009415522   -0.13057703427515
H         1.26168544797558   -2.65689096339181    0.43982936196493
H         1.80571272406611   -0.65401778013462   -1.44960739962807
H         4.02357755240168   -0.07605858588467   -1.86350838492230
H         5.11881319659481   -1.45391237470441   -1.96257345747772
H         2.96100665340818   -3.43929730739179    0.03771665779422
H        -1.21197276443304    0.23305157898566    2.19953394742613
H         2.66320582354772    3.03607706972886    3.09659101706476
H         1.53441588870364    2.77324939336125    1.80851191500787
H         4.49659412009014    1.06750601206887    0.26492470833056
H         3.39611657306283    2.11628988347814   -0.67680489526367
