38
 energy: -53.126317763100 gnorm: 0.149584027758 xtb: 6.4.1 (79825abcba525fcdf90b791dcacef51065a7a4e7)
C         1.04820005189689    1.15925342157831   -0.06801110861219
C         2.46871053549107    0.38425019050140    0.23931422126549
C         3.33240642293769   -0.25585301494327    1.57840449998910
C         2.52500266066829   -1.33077185415730    2.38504625661467
C         1.09340518040070   -1.10259686680862    1.96755242439831
C         0.02181651484725   -1.88364359831977    2.71625321602329
C         1.17656422023866   -1.71013155430430    0.38234717221981
C         2.26270094111679   -0.94391012751101   -0.48656915323450
C         3.47102559643124   -1.85388644978912   -0.63731355185540
N         4.68365546197567   -1.28677599258097   -0.93348995067727
N         3.53242005080951   -3.14979201345316   -0.54904882481672
C         0.65375548011745    0.41075680941271    2.42754976009923
N        -0.56553416907732    0.86238672812988    2.42684862091186
O         1.66352176670909    1.13676746554889    2.88296013397200
C         2.15551306354163    2.39144391470184    2.31938492384092
O         3.14427146423274    2.41366284119912    1.26046637411705
C         3.37936038903552    1.58035950759470    0.08648430615602
H         1.12001142967791    1.52813632532713   -1.09610015496601
H         0.91714169287143    2.07839026068343    0.52423496809789
H         0.24832752178684    0.43637595654142    0.05106521318987
H         3.63778062440173    0.54840848629377    2.25268579908666
H         4.23114956056043   -0.69961154898523    1.12056351442189
H         2.64085606087890   -1.20812880308083    3.46600130866481
H         2.81859053127245   -2.35592511948535    2.12558013170971
H         0.31854145217299   -2.92506702830221    2.82972615787383
H        -0.93156951363452   -1.93783878366303    2.16249918277886
H        -0.26592766039281   -1.52058424708964    3.70903057337404
H         0.20225711188679   -1.58643960676841   -0.10287998428320
H         1.34607910363501   -2.79985407686997    0.42564526493482
H         1.99512485152748   -0.75970298619595   -1.54131490818780
H         4.63218508394515   -0.49871944220598   -1.54996646839063
H         5.32861232758836   -2.05111207047290   -1.10023975491129
H         2.63151190866637   -3.57952990697679   -0.34948921120469
H        -1.27855768527400    0.21004443712072    2.10153998511929
H         2.55752137842350    2.93456891704967    3.18103518060214
H         1.29955172700043    2.98327057488074    1.98101214150285
H         4.45821148202587    1.45685483383353   -0.02979252684844
H         2.99263378461333    2.21220829529841   -0.72059963771775
