38
 energy: -53.131498843550 gnorm: 0.142623927089 xtb: 6.4.1 (79825abcba525fcdf90b791dcacef51065a7a4e7)
C         1.15594125280648    1.15691604389529   -0.11189469367569
C         2.50383709025717    0.32306338477500    0.33620736704972
C         3.19519985755743   -0.37873856607439    1.74274816457307
C         2.35580911821061   -1.33206212713063    2.66178007162847
C         0.96702281502095   -1.16648230709447    2.09636675111067
C        -0.12335603572443   -1.97835954752876    2.78252887630760
C         1.09077534196662   -1.70782781201671    0.48996707488043
C         2.21700297065467   -0.99771491520220   -0.37557022539278
C         3.45809674738113   -1.77098992619837   -0.79097511232508
N         4.34583587438303   -1.03682418618101   -1.53443044147504
N         3.95913545748325   -2.92915102836382   -0.47704163880321
C         0.64838842828585    0.43292879806113    2.28474157688512
N        -0.54858226019984    0.94019468811548    2.26066145699178
O         1.69363779299542    1.11496114527573    2.72791616556678
C         2.29455352953235    2.38507030352796    2.32840587869859
O         3.34316047147506    2.33406339150744    1.32977324011857
C         3.46997047425985    1.47151335729915    0.16023409199859
H         1.36017117496591    1.39735807011804   -1.16007231708489
H         0.99331336924890    2.07657066158359    0.47165632756075
H         0.27862757574234    0.51964102178981   -0.13888210474735
H         3.74021293868274    0.31497565475656    2.38809036369576
H         4.01064269216287   -0.89741503547953    1.21330795024453
H         2.37591600568310   -1.05550400867127    3.72009877477650
H         2.64105951032861   -2.39125421395263    2.62713809777198
H         0.09868261476610   -3.03582287997363    2.64853371990667
H        -1.05545555984569   -1.75533153309843    2.23482954626117
H        -0.21593111243370   -1.78480324069745    3.85685727232463
H         0.15960815577434   -1.57830946499666   -0.07232475929506
H         1.25938084962021   -2.77681579239838    0.70662830327161
H         1.75385752500491   -0.72042942515831   -1.33818484388140
H         4.08943710811018   -0.23369184864319   -2.07569168916647
H         5.08570543442940   -1.70981213266641   -1.70075769164647
H         3.43767345274138   -3.56912550386537    0.11847848483529
H        -1.26920330175490    0.28665862413744    1.95508880443614
H         2.71817312576019    2.84958694319416    3.22495891882390
H         1.53255621139189    3.10298986429584    2.01000936267970
H         4.49793964772914    1.10331539669403    0.18030996404700
H         3.18764666245912    2.03320567461198   -0.73696703348488
