38
 energy: -53.126983730004 gnorm: 0.147448734436 xtb: 6.4.1 (79825abcba525fcdf90b791dcacef51065a7a4e7)
C         1.04497745273430    1.11642555438124   -0.08673291829780
C         2.43706412174598    0.36485849727524    0.37171072122579
C         3.26909401064741   -0.28616897014103    1.72550353548320
C         2.42310902910010   -1.31150644995216    2.55677650195265
C         1.01087839500153   -1.18567710218860    2.04140486891426
C        -0.01052000686898   -2.05023474741646    2.76816103869712
C         1.14127524391171   -1.66559312217491    0.41611509821464
C         2.27325044086387   -0.93070807501083   -0.42077196992561
C         3.47871890566467   -1.80579471259781   -0.72391947470932
N         4.51727054612731   -1.15763348772816   -1.34125523217485
N         3.61158590422070   -3.09371453560608   -0.60333731012110
C         0.72723416893007    0.39836836188957    2.36617361958006
N        -0.41056786040098    1.02138673317759    2.27733661504490
O         1.75736222398964    1.09436001934583    2.82284623063300
C         2.17375962543260    2.40611934435209    2.33316659171813
O         3.23604166835192    2.38419499377484    1.34801606523637
C         3.40855696447089    1.50853649701680    0.19417212756174
H         1.22889816399695    1.43623181392686   -1.11731318570012
H         0.59016331336763    1.93875679842338    0.48742703985839
H         0.23895784414485    0.39062746770828   -0.09548459252748
H         3.70957219743502    0.57670782614625    2.23163379402457
H         4.06634671401785   -0.85343060094450    1.21866864393803
H         2.39371182679474   -0.89008894596588    3.56596937883906
H         2.75861893920309   -2.35575464210837    2.51890110040485
H         0.48942813775387   -2.94366021474327    3.13873808748529
H        -0.82749876569547   -2.45385262552526    2.14513304461844
H        -0.46153070840382   -1.57405790206294    3.64569203394872
H         0.12998854692061   -1.54956052564738    0.01132491215352
H         1.37675479599908   -2.73436697372695    0.55886329652335
H         1.90414509031194   -0.70528442300588   -1.43613558608115
H         4.42833264769630   -0.21469870719517   -1.66788907628776
H         5.24433596748885   -1.77673841765729   -1.68194489724240
H         2.79684692090481   -3.59653540443700   -0.25764128992404
H        -1.06013283362329    0.51638167288063    1.67499621897288
H         2.51360349675112    3.04715735152950    3.15329648523536
H         1.35069740503650    2.99122170622912    1.91168283302233
H         4.40541332186634    1.07492855045034    0.29883807395295
H         3.27749042881549    2.08460959884047   -0.72839830104244
