38
 energy: -53.122697582395 gnorm: 0.147793211512 xtb: 6.4.1 (79825abcba525fcdf90b791dcacef51065a7a4e7)
C         1.12991147900682    1.10373841339968   -0.03447366975073
C         2.53293015051429    0.34166859113231    0.37014604390775
C         3.32410874226627   -0.31873692656458    1.74374222863752
C         2.44294677687279   -1.32192007600841    2.56544743626063
C         1.06754986119087   -1.11729147119914    1.98042883253007
C         0.04235891171645   -2.05566706736734    2.60278237764349
C         1.04967964471388   -1.59411247141558    0.34910667690790
C         2.28666893291788   -0.94875204831675   -0.40929379801033
C         3.45511241224066   -1.86826014724932   -0.72563846272482
N         4.19743546540751   -1.41193249265358   -1.78418816894060
N         3.89339246982684   -2.95247919820374   -0.15703419956503
C         0.67326164428418    0.43239444883263    2.35209964681387
N        -0.47205579145982    1.04789680871330    2.35859499124114
O         1.67447386250911    1.14267746686294    2.84928192700802
C         2.07546674782804    2.43481946230133    2.29841056226525
O         3.23509458381595    2.35729574609263    1.43313676724809
C         3.45748298489559    1.53099723575050    0.25175226899439
H         1.27118557791844    1.35449668612893   -1.09057995244467
H         0.81249123102117    1.98812747295364    0.53984733560111
H         0.27111488555184    0.44243552166388    0.00644040316729
H         3.66104783493742    0.44063917055219    2.45406977987171
H         4.21805146196164   -0.74542841164300    1.26095860253714
H         2.44992789256232   -1.05554293125860    3.62654198725228
H         2.80202446509813   -2.35635152727512    2.49148448111511
H         0.57955305813909   -2.97669690749358    2.82326152255896
H        -0.65874560121758   -2.38929457670083    1.81813550003737
H        -0.41344031043879   -1.69931081329120    3.53309038328336
H         0.12233030323952   -1.15341563356185   -0.03276888860881
H         1.04026033846694   -2.68427496646456    0.17717000934455
H         1.95815978379317   -0.70479794009427   -1.43427477051532
H         3.89873100639951   -0.54718332465176   -2.19248970451169
H         5.05990915081604   -1.88803396508640   -2.02387758884029
H         3.25613192535736   -3.24935916483824    0.57910129232642
H        -1.28644590797035    0.54398678908240    2.00842054059079
H         2.52837210974499    2.95413685159280    3.14942338050365
H         1.14032128244512    2.86897540940899    1.93175496165925
H         4.48030799140719    1.24044408460200    0.50095355681252
H         3.56598915393972    2.06153426443963   -0.70057735675177
