38
 energy: -53.130805353339 gnorm: 0.135747008077 xtb: 6.4.1 (79825abcba525fcdf90b791dcacef51065a7a4e7)
C         1.06214159431639    1.05108027684568   -0.04682349255228
C         2.46797615218258    0.33148740730480    0.42087749970166
C         3.25446901134970   -0.49722656346300    1.70287891462401
C         2.34172431075657   -1.46005151326259    2.53827553173912
C         0.94672580885242   -1.15329132329391    2.05277202888616
C        -0.17930607857217   -1.95801460461943    2.68787971110057
C         1.12133445999416   -1.65190521538921    0.43728895834720
C         2.22899676536496   -0.91470729823656   -0.42956010344629
C         3.48570161883369   -1.69647071625205   -0.77650123112054
N         4.25369682373528   -0.97759634487549   -1.65582423340107
N         3.84888040476471   -2.91893592694507   -0.52231398786054
C         0.67868458055867    0.42848278600180    2.40101526754455
N        -0.39587602117539    1.16002467444798    2.37267237523767
O         1.76492012102389    1.06532645977347    2.81167393915758
C         2.38360042572056    2.32159746565999    2.39585750923401
O         3.51983566177345    2.21978616867052    1.50252144590266
C         3.41786438034390    1.49294844886000    0.24188511807539
H         1.10685060932107    1.02787743938932   -1.14028647545490
H         0.97042127926220    2.11860308895415    0.20759087439217
H         0.15949329464642    0.48238738148239    0.14898636636459
H         3.76796803726520    0.13537338099973    2.43149493006034
H         4.02881108535536   -0.99895131535027    1.10042902987609
H         2.42482509241156   -1.15164952503423    3.58465482947810
H         2.62208630707674   -2.51094076179388    2.39169904661243
H        -0.01355922046157   -3.01707207690330    2.49706616384181
H        -1.07181536764886   -1.70098042611310    2.09131775173010
H        -0.39807949944912   -1.67541161906020    3.72349036626706
H         0.15863878953826   -1.50919662332868   -0.06557359105534
H         1.31869959100279   -2.73739510853934    0.46668121770585
H         1.75363961318876   -0.82047334001956   -1.42111111101938
H         3.92675078459234   -0.11619504408172   -2.04929559126653
H         5.10748132369841   -1.46966925996842   -1.89436305379000
H         3.38416316341115   -3.39669288317641    0.24704961519920
H        -1.24317134061060    0.67378854082401    2.08036470371892
H         2.68057970972920    2.69450206078537    3.38164759705437
H         1.57697051964939    2.93518728180025    1.98320695261286
H         4.44605289381475    1.15463595636074    0.09674227869505
H         3.22545331714173    2.13149037357421   -0.62726219152045
