38
 energy: -53.134853564531 gnorm: 0.150310213072 xtb: 6.4.1 (79825abcba525fcdf90b791dcacef51065a7a4e7)
C         1.11141071344094    1.13829325655307   -0.14460447658796
C         2.50081496664956    0.37785778200760    0.30730545668974
C         3.23132253732382   -0.30018433747603    1.70569132261624
C         2.40741331947348   -1.35912096022522    2.51677029318971
C         0.98825401721087   -1.16792037044920    2.04214887498533
C        -0.01954935195145   -2.03695190849167    2.78242293872645
C         1.11564294561153   -1.63896426550208    0.41402749293575
C         2.29823846390628   -0.96064551774209   -0.40031599093194
C         3.53761484590289   -1.80528548230413   -0.64802291639619
N         4.48481645061479   -1.10493551136291   -1.34953908943212
N         3.73195980137759   -3.06929437139546   -0.41256016573683
C         0.67966948355824    0.42161088064061    2.31287896285343
N        -0.52926019214432    0.89683055453329    2.37026054651959
O         1.69535379018208    1.16247422192294    2.72956223205950
C         2.15141861151086    2.46475886281589    2.25003637086720
O         3.27831045207452    2.37392214310552    1.34377546133353
C         3.48253610836992    1.51941612606726    0.17929854105682
H         1.26495320108592    1.30897451779974   -1.21488068705433
H         0.91102582036935    2.08475774106426    0.38150872996161
H         0.22388136231917    0.52314110164515   -0.04259205779129
H         3.67370136153929    0.38774850852243    2.43080828112694
H         4.01967274730103   -0.89844636609754    1.22106184758872
H         2.57378960255265   -1.27998204252384    3.59518723931749
H         2.72400588539713   -2.36706048719513    2.21964609446054
H         0.46740730963153   -2.97635396825391    3.03909693719286
H        -0.94992199719213   -2.09390113770234    2.19107778267470
H        -0.36360730133479   -1.49446907426697    3.66986431259827
H         0.13170261096881   -1.53400233113349   -0.05593402845134
H         1.10310327577263   -2.73719101294781    0.52286664719228
H         1.90732278565008   -0.81059668860283   -1.42143700386858
H         4.12459295607280   -0.32876206340673   -1.87061435428009
H         5.08417965002570   -1.77218791648848   -1.82232072476947
H         3.19618890602639   -3.52501306093870    0.32324156715265
H        -1.25613405044200    0.23565996249274    2.09770494896972
H         2.43161606633573    3.01032822864870    3.15716374731639
H         1.30761189963449    3.00625640173094    1.81163542050636
H         4.50990726644479    1.15207038391639    0.13176960970706
H         3.33340202466752    2.16940862782430   -0.68986405276589
