38
 energy: -53.126470766708 gnorm: 0.155371300106 xtb: 6.4.1 (79825abcba525fcdf90b791dcacef51065a7a4e7)
C         1.09488551151691    0.99689065288644   -0.03347659762910
C         2.53491574947734    0.29087512839353    0.34173522176455
C         3.30134355565163   -0.49752797097166    1.66077823094851
C         2.29675728542109   -1.32399155283172    2.53587060090092
C         0.93342746250553   -1.09257284303254    1.93286689408292
C        -0.16168605496393   -1.82813728336486    2.69349852822964
C         1.07857742147981   -1.65448233583129    0.33534421391614
C         2.28601411775837   -0.98955789020474   -0.45318346071157
C         3.48348510172989   -1.81430823359311   -0.89666888790633
N         4.30663222974307   -0.95535266044274   -1.57815993123509
N         3.80664309185622   -3.06307042381026   -0.73206923405072
C         0.70724525096261    0.46199848606156    2.40960411167986
N        -0.43834322147591    1.04120145317195    2.61645749420976
O         1.77538977094944    1.10693203418914    2.85372804191509
C         2.27958564051562    2.36580122799626    2.31066234228117
O         3.49940331955924    2.17386565208672    1.55260499318846
C         3.44782957734114    1.49247275795809    0.26383075918774
H         1.21270571846169    1.11439724458123   -1.11537731541053
H         0.85102513701578    1.91632732189294    0.52142210499391
H         0.23772542938850    0.35941842686508    0.15475947536634
H         3.87994732400279    0.21575464969014    2.25339178169573
H         3.98172254444891   -1.18236761523978    1.12940422679319
H         2.39990978408915   -0.98569484072076    3.57116865273766
H         2.47320967261758   -2.39954128490070    2.40736742702398
H         0.18389924510881   -2.82012408191111    2.97988559798134
H        -1.09530520228245   -1.87471142890755    2.10637698786147
H        -0.26929154823744   -1.33328710545536    3.66497166466142
H         0.14345959553645   -1.51414611333621   -0.21771981214434
H         1.19439282026509   -2.74224539783781    0.48184850853467
H         1.89820075927601   -0.77226120285798   -1.46333235910621
H         4.30276195668683    0.00656724885533   -1.29812291756891
H         5.14459531291088   -1.44062954608194   -1.87867400163122
H         3.13666286906463   -3.72493646353561   -0.34581282577564
H        -1.29024058271370    0.54408374947626    2.35776156287693
H         2.40289453688155    2.95996958476270    3.22214218756755
H         1.47149430715704    2.92487252143556    1.82915176443907
H         4.51046759056477    1.27238453283537    0.14113185915084
H         3.09551984336779    2.24465126080996   -0.45050823365301
