38
 energy: -53.125335054590 gnorm: 0.150786969511 xtb: 6.4.1 (79825abcba525fcdf90b791dcacef51065a7a4e7)
C         1.10542963995822    1.09909453767227   -0.07327732574712
C         2.53311388353209    0.37378218567954    0.31216862997389
C         3.34196837610160   -0.29154860660206    1.67303409380070
C         2.43941500092940   -1.22184141781645    2.55506297715059
C         1.04366508095745   -1.11382215786371    1.99287950472203
C         0.04686177898452   -2.08914232090878    2.60445360475673
C         1.06141947754690   -1.54714858036844    0.34946765812853
C         2.26385482292426   -0.91064332901201   -0.46956476017107
C         3.42670195086649   -1.85778691882277   -0.71762683568199
N         4.42412533112728   -1.26850578484375   -1.45090731393388
N         3.71207788031463   -3.08005167196435   -0.37768478019798
C         0.59803181505194    0.41611442567400    2.38763740802851
N        -0.57998053284924    0.95739562875379    2.48733140893961
O         1.60028869401706    1.15766399113980    2.83451931050977
C         2.15428130208580    2.38301840688062    2.26400708746843
O         3.32754983647718    2.35572178769454    1.41421817190005
C         3.47868752760361    1.54790726304245    0.20902597194539
H         1.14211327611899    1.39153571948575   -1.12747418593652
H         0.84450270267098    2.00563328506312    0.49492058614016
H         0.23177422595990    0.49498014626941    0.14649318941285
H         3.75399456945581    0.50722680283469    2.29507709332568
H         4.20326330730557   -0.78676294405695    1.19636541472105
H         2.49591866828971   -0.79196386195688    3.55952291877267
H         2.83277271555336   -2.24640080149285    2.55319311644790
H         0.30151062111662   -3.12920186065608    2.40718557374292
H        -0.98724639626795   -2.10044701327081    2.21842505308348
H         0.04894571763506   -1.99594515763033    3.69602386393080
H         0.10224417435515   -1.32216776793692   -0.12947470760180
H         1.13758731973133   -2.64549849758019    0.27245394346410
H         2.09663600520825   -0.72708511785733   -1.54490753953526
H         4.15064662465701   -0.77622815221046   -2.27951925567902
H         5.15042760178158   -1.97536780391760   -1.47946592056452
H         3.04261714619690   -3.39684687150699    0.32059689906482
H        -1.39844201961867    0.37304532059137    2.31870692582682
H         2.66511030597531    2.69763112152563    3.18003612700069
H         1.43260147487119    3.09182949145310    1.84664655403407
H         4.54218102893493    1.29971952574749    0.20020493597058
H         3.24633001175122    2.17737115343368   -0.65697636041591
