38
 energy: -53.134428014090 gnorm: 0.148049664372 xtb: 6.4.1 (79825abcba525fcdf90b791dcacef51065a7a4e7)
C         1.19843626033624    1.29595704315991   -0.00111960407896
C         2.55970392965440    0.40783069150811    0.26554653133009
C         3.29971908118101   -0.33053951849215    1.62791670937216
C         2.38949760342991   -1.38637244034423    2.34536774614210
C         0.96126285305358   -1.12953037894939    1.93304024730215
C        -0.02887143084114   -2.04335334006574    2.64258295576219
C         1.05210683476188   -1.52281010025723    0.28198967472612
C         2.29412398609114   -0.89637915217916   -0.48402696683007
C         3.41342655151198   -1.87681087255574   -0.79506497446632
N         4.23909371273141   -1.49753419599005   -1.82182144747792
N         3.65064949738577   -3.02916300138386   -0.24122293007380
C         0.67898715780198    0.38861431015641    2.49043235789661
N        -0.49465770116466    0.90848893850800    2.69761702368811
O         1.75264204786208    1.03360317953366    2.92098156046664
C         2.18903719192275    2.32547486485940    2.39704233835526
O         3.28644591507016    2.37001395003208    1.45197316674066
C         3.47290898079696    1.61088233842719    0.22037019729953
H         1.21618320370270    1.40259977691429   -1.09039043169763
H         1.20749320488587    2.33323665684811    0.36862789698776
H         0.28681762359766    0.78646843127858    0.29196720637123
H         3.64092375845908    0.40972515233150    2.35615624817778
H         4.19881834378965   -0.76273734670193    1.15983040221694
H         2.65375110272604   -1.20338282230307    3.39112682606500
H         2.61223435445782   -2.41356479904707    2.02958310820619
H         0.27735717264812   -3.08781357129042    2.61409733632878
H        -1.03431500734610   -1.97949351065584    2.19143917881401
H         0.03240723283034   -1.82807711694383    3.71501792830503
H         0.15240437657427   -1.07995428233323   -0.15895664671353
H         1.09948516224509   -2.61961913735893    0.16854174100785
H         1.87244392185183   -0.59023682923231   -1.45689934008003
H         4.35302708603404   -0.50887186957212   -1.93711070507430
H         5.07602364989020   -2.06416580485335   -1.90220421331798
H         2.98453116540328   -3.17681088259895    0.51417143805141
H        -1.24602589288276    0.34015620981096    2.30746004355154
H         2.64517427488412    2.68741278665157    3.32439153765284
H         1.30875763126337    2.88666248257838    2.06901626433093
H         4.53366088512566    1.35175391495200    0.20162844820918
H         3.32291488838341    2.33078309949580   -0.59167629794208
