38
 energy: -53.124691503997 gnorm: 0.144243887049 xtb: 6.4.1 (79825abcba525fcdf90b791dcacef51065a7a4e7)
C         1.14602953383185    1.17098873129318   -0.12371388366994
C         2.51813542687691    0.38702197411782    0.34066787556420
C         3.25030445505689   -0.27814844555029    1.74435668371676
C         2.44153312080622   -1.30173660707481    2.61394190823539
C         1.04273612652131   -1.12890333484688    2.07604610326389
C         0.06456694968250   -2.13263611863256    2.67152463992960
C         1.09910261706014   -1.53314001360216    0.42610517761142
C         2.27755552267969   -0.90693955824425   -0.43466514420966
C         3.44921227235080   -1.83973666388952   -0.69531668397355
N         4.29777901611194   -1.35926325765233   -1.65910384127050
N         3.71886307620592   -3.03380521653964   -0.25665978658443
C         0.63854327112269    0.43781539519233    2.35380378944833
N        -0.56105801938215    0.93921166728639    2.36779876382160
O         1.63268443841257    1.16597062291624    2.83918132937987
C         2.10315443419393    2.41713002834982    2.24999240594793
O         3.26486107158397    2.41210944830990    1.38404907975065
C         3.48819578394080    1.54082697810745    0.23562250186268
H         1.15426335120810    1.09240566190124   -1.21548101128781
H         1.07589263558498    2.23828185392741    0.13841287410259
H         0.17892250146352    0.81249269458713    0.21201164394421
H         3.71404955807410    0.45539976235547    2.40888112590544
H         4.04967622098200   -0.82881955659597    1.22277702408472
H         2.55267399703018   -1.21864921110145    3.69914757106976
H         2.86484239214717   -2.24633933727177    2.24926304606600
H         0.62018894176243   -3.04349449489825    2.88856330221027
H        -0.62236957982913   -2.47377331299226    1.87762969353496
H        -0.37686526192160   -1.85820728267261    3.63591154253886
H         0.17426182034823   -1.19169495281570   -0.05149738437861
H         1.29706933215668   -2.61402772677076    0.52904272161273
H         1.96732228492827   -0.77457043661455   -1.48549890257645
H         4.35421630950182   -0.47412395367639   -2.12501032321846
H         5.04242296895926   -2.04037894262888   -1.75693684307922
H         3.18130561476758   -3.39624451311675    0.52807194970539
H        -1.29194780460907    0.39816907701507    1.90644017645457
H         2.42486493029331    2.87308589570639    3.19214060761055
H         1.22844762474722    2.96582155239110    1.88770749814983
H         4.51844257575619    1.18977881181645    0.14590003764790
H         3.32439462705626    2.10691884526015   -0.68789469923117
