38
 energy: -53.130715483681 gnorm: 0.153387181517 xtb: 6.4.1 (79825abcba525fcdf90b791dcacef51065a7a4e7)
C         1.16894764345284    1.10131561005998   -0.11599860176666
C         2.54724772900696    0.32397448410869    0.34112124505982
C         3.20562803711798   -0.29055702178134    1.80322652998559
C         2.37672533532818   -1.35051323619354    2.60786023799886
C         0.97587320484494   -1.16311082441537    2.08029040469963
C        -0.16052067616570   -1.99669778089882    2.65703200541463
C         1.22541135261797   -1.59770006515228    0.45617451311016
C         2.34441821803678   -0.95489274420456   -0.46925846073672
C         3.55250907142748   -1.81306184797960   -0.80821495927071
N         4.25722386911989   -1.28065636620534   -1.85689382588021
N         3.90194274986230   -2.93378669935882   -0.24892695839098
C         0.64546759523967    0.40795870706805    2.42336686113624
N        -0.56082621287988    0.88467506818107    2.33262488217220
O         1.63087493569067    1.16229075405772    2.88604772902883
C         2.13713478325021    2.38810896607746    2.27371111260863
O         3.19614152576027    2.40733393130466    1.28498441648788
C         3.53111711469237    1.46477517484004    0.22325493152939
H         1.32404341423068    1.13402745346442   -1.19908391609213
H         1.06405455046430    2.11465866325190    0.30218501238972
H         0.26578161657028    0.60193471513069    0.21782307688270
H         3.71742149541726    0.44336416311586    2.43105801759820
H         3.99979270278811   -0.90944467403172    1.35538749715658
H         2.33446737550847   -1.12541995882489    3.67766136022320
H         2.75234996688128   -2.36990984202418    2.45232110716325
H         0.21641177708549   -3.01474073341101    2.74066833548964
H        -1.00756583540797   -1.79314815400218    1.97908833438957
H        -0.35546865782564   -1.65783415374268    3.68044903726029
H         0.27041698182789   -1.40930598239151   -0.04633206112415
H         1.22495328253921   -2.69925537708650    0.52459152296244
H         1.92975155500747   -0.83412082920076   -1.48487824567807
H         4.30634318855182   -0.28004474607308   -1.84744400172856
H         5.16541925273881   -1.66948818174416   -2.08487507389161
H         3.30591975595579   -3.22499655299524    0.52314012796999
H        -1.28569503536246    0.21616255649153    2.07294253023462
H         2.63466248264954    2.86775837279636    3.12308692072911
H         1.27499411219940    3.00555170201205    2.00370615821632
H         4.53250009333555    1.09174312857279    0.44858274537962
H         3.45098767744398    2.02350913049030   -0.71566492154574
