38
 energy: -53.121841731733 gnorm: 0.157688668419 xtb: 6.4.1 (79825abcba525fcdf90b791dcacef51065a7a4e7)
C         1.22668379737758    1.07587901302300   -0.05355271487627
C         2.63540083738851    0.34324692436146    0.38427764879354
C         3.33213691639690   -0.39101814165962    1.77146152975978
C         2.38529933618007   -1.24977397308799    2.67923864330134
C         0.98354097297329   -1.12029075553238    2.13688832072475
C        -0.07521832830891   -2.06099317598077    2.69634952942924
C         1.15938574472346   -1.53536119116078    0.49808244076156
C         2.39001031955265   -0.98015329903481   -0.33804623371892
C         3.54493454462275   -1.86814680060876   -0.77215081412868
N         4.30902012459281   -1.19494741226368   -1.69018225108725
N         3.69128223500070   -3.15222847314747   -0.62845753716166
C         0.53756312978398    0.45377967693105    2.27303114300862
N        -0.62447656756797    1.03688396417855    2.29007518771994
O         1.54795241570617    1.14805031414898    2.77424952230390
C         2.09751203749582    2.39889677510307    2.25728449654817
O         3.30715873022874    2.33606030569137    1.46214184521487
C         3.52815538653433    1.55498565915160    0.25012780581635
H         1.27851086665688    0.96836005495302   -1.14164838593358
H         1.18982811475961    2.15968758189957    0.13813683326598
H         0.31499602714242    0.63814323333267    0.33854402951804
H         3.81158542123671    0.35721583185997    2.40787357066359
H         4.04170245163337   -1.02834282747432    1.21954375297705
H         2.57905600769313   -0.89362501513429    3.69538008404096
H         2.55929743593094   -2.33052916734221    2.60082560812258
H         0.28297059180477   -3.08885679540573    2.72245770923964
H        -0.91568264071271   -2.07224494771338    1.98079470352444
H        -0.39575592684819   -1.76146859503329    3.70022022063936
H         0.18580187159804   -1.39632735776404    0.01556459907525
H         1.29543379515874   -2.62900303850874    0.55761100777823
H         1.98185337478914   -0.69696706240735   -1.32355692311041
H         4.43111225167834   -0.21999751713086   -1.49449925388126
H         5.15165881036251   -1.70838215373738   -1.92326872090154
H         3.08159935008795   -3.64203314261083    0.02308857304206
H        -1.26969986792767    0.43695374962764    1.77670460757235
H         2.42684572169180    2.94462243768349    3.14765490142173
H         1.20043683343900    2.82378799801289    1.79668892181929
H         4.59152217906758    1.32313275066951    0.15963644678424
H         3.37840813700939    2.29609315494323   -0.54265859669170
