38
 energy: -53.132085314683 gnorm: 0.150986446575 xtb: 6.4.1 (79825abcba525fcdf90b791dcacef51065a7a4e7)
C         1.17598200662532    1.22335771266912   -0.06740374158108
C         2.51982359974719    0.38118450732811    0.37730174135033
C         3.27873793303280   -0.34254829268501    1.73712722269510
C         2.39152540223855   -1.32431942722514    2.57796111608838
C         0.98980401223431   -1.14477396419063    2.04996787121624
C        -0.08891547998292   -2.05836194763550    2.61619255679172
C         1.13991548047418   -1.55349874467434    0.40701316768182
C         2.25920646449937   -0.85704754554568   -0.47839478886500
C         3.39339396634622   -1.80302202676626   -0.83836731435543
N         4.21670531023656   -1.29778241805667   -1.81135101406471
N         3.57259594123096   -3.06177377440925   -0.56567363475330
C         0.71431473602053    0.44537188824916    2.35108355099605
N        -0.46055042644038    1.00122460559475    2.31424644265883
O         1.71842082074415    1.06600923857111    2.95166520592190
C         2.33997024850311    2.32486052156596    2.54811194999860
O         3.41265176914695    2.28838679320742    1.57473155366233
C         3.49935074873741    1.53084264995536    0.33114588681337
H         1.55591864455574    1.65918632674196   -0.99686602260595
H         0.66105315862358    1.93723206492639    0.59439375218884
H         0.40961362617426    0.49170967814497   -0.29956257914964
H         3.71523814578097    0.41685996479363    2.39097116170348
H         4.13691795554836   -0.70606964354018    1.14919992120398
H         2.41352703410606   -0.97138575491560    3.61327793445708
H         2.76482345123353   -2.35110206911580    2.47393371207292
H         0.19299609819352   -3.10449945746678    2.72392707960618
H        -1.00698433258329   -1.95696928888473    2.01171370780877
H        -0.35363280513496   -1.66649971909248    3.60441541894463
H         0.14163763612394   -1.51602676489875   -0.04249393173456
H         1.33446912137380   -2.63980848360873    0.42062373442790
H         1.78339459545277   -0.57815758286129   -1.43434525718345
H         3.94426320912360   -0.45739931657292   -2.28385197820680
H         4.82764882989108   -1.93452254955487   -2.31064502300713
H         3.05514421656360   -3.44574760445150    0.22232508442876
H        -1.19902328506570    0.36169733984974    2.02194277995564
H         2.88592686047821    2.63680064017176    3.44458357269615
H         1.50929683378191    2.92803592184328    2.16918469024748
H         4.55293427508511    1.24532130200895    0.36480167910106
H         3.33459589549640    2.21509923538342   -0.50839184979538
