38
 energy: -53.127807189995 gnorm: 0.145149458525 xtb: 6.4.1 (79825abcba525fcdf90b791dcacef51065a7a4e7)
C         1.19795534776153    1.22273459820857    0.08072522469385
C         2.56412237415523    0.37292820032329    0.43335203961047
C         3.29739093117204   -0.47452986777982    1.73450442819000
C         2.35951750776222   -1.54476395433262    2.39254296933125
C         0.99746216110969   -1.11941882544752    1.90292777835631
C        -0.10244821095126   -1.98346430203386    2.50501724934820
C         1.07827710723005   -1.50970963176230    0.25064706034004
C         2.29708230475865   -0.81302571459875   -0.49161251224390
C         3.44584146970838   -1.77244302291135   -0.75750741169806
N         4.35873417726286   -1.24990857657601   -1.63693369916438
N         3.59731569801090   -3.01451365240226   -0.40360446649269
C         0.71852219430864    0.41869790666954    2.40444366365188
N        -0.44509640180411    0.98694382159401    2.52160031247799
O         1.74093605722617    1.11473178179145    2.87807303769487
C         2.23673768879944    2.41394527387281    2.43073590805796
O         3.32759996736107    2.32391956048545    1.48133597362487
C         3.53033312486097    1.52431692291830    0.27824410008893
H         1.26995852117032    1.17078992696829   -1.01029075153033
H         1.20839179804214    2.21292905539528    0.56254496575113
H         0.22663317031299    0.77549969391972    0.26249769808619
H         3.55077465586259    0.24546434691631    2.51690474717324
H         4.22382013665435   -0.92704125556341    1.34560649218961
H         2.45348033121378   -1.53010059146723    3.48244348295348
H         2.62440508479161   -2.56158332891810    2.07573284008243
H         0.14271134836272   -3.01934044890194    2.27623359716290
H        -1.14828049703556   -1.81964441847654    2.19209004298543
H        -0.16929078864229   -1.77328752213388    3.57813116878285
H         0.19435168754507   -1.33463244506868   -0.37228412663886
H         1.11461022558389   -2.61275451708767    0.24186665078444
H         1.86310999959520   -0.52578043407379   -1.46484221203467
H         4.14092427907752   -0.38195086439541   -2.08741553327070
H         5.04128096518482   -1.87048282423401   -2.05764972819764
H         2.86528479927401   -3.32426583440788    0.23225599805320
H        -1.24558074640356    0.35538314857662    2.53320379050115
H         2.72132420724434    2.77563709643955    3.34363872944723
H         1.37363831408713    3.00739274135210    2.11402733426463
H         4.59156554442977    1.26653597613977    0.28354878964758
H         3.20569320826735    2.07542256148901   -0.61117501403259
