38
 energy: -53.123802216419 gnorm: 0.161219515057 xtb: 6.4.1 (79825abcba525fcdf90b791dcacef51065a7a4e7)
C         1.13351052668115    1.17383318926780   -0.01396772679075
C         2.55179848077949    0.42720132715971    0.36541206593924
C         3.29710219783210   -0.45928781950502    1.63329408125964
C         2.42654875172110   -1.45581059914848    2.47418724151456
C         1.02675506159666   -1.16468788878028    1.99287501267765
C         0.00825510192899   -2.06639729404944    2.67732157790612
C         1.03389853506965   -1.40346744086879    0.31007294158106
C         2.23096958136352   -0.77393958844031   -0.52210456157308
C         3.33558822689858   -1.77535771953809   -0.81842969345086
N         4.39205034952056   -1.30301568479661   -1.55367569554440
N         3.43973315484314   -3.03556448000152   -0.51517419573874
C         0.74206848666916    0.38419837005225    2.45659226296638
N        -0.46015371729590    0.87433923400620    2.52773324320656
O         1.82234078195988    1.03158535201056    2.86649456957149
C         2.26187467756400    2.36012662975910    2.44736036894214
O         3.26650722833958    2.41991529956328    1.40496691542765
C         3.50219134612496    1.59367836200523    0.22611973929448
H         1.19692569803992    1.26428253371976   -1.10300215738631
H         1.09387460422975    2.23623370658142    0.27322274922170
H         0.12549928831151    0.79572848615676    0.11823372625496
H         3.92414304808205    0.22555935441949    2.20996499813277
H         3.99287856518385   -1.05795670668244    1.02356459638357
H         2.41638662999887   -1.07594157720152    3.50011288066554
H         2.80637665692003   -2.46654571785201    2.27771587190359
H         0.35086528798229   -3.09507869119145    2.57773543194405
H        -0.99724850550148   -1.93607365294206    2.24085416245398
H        -0.09195530145300   -1.93392658753202    3.76019971925553
H         0.04963914844910   -1.13099034376568   -0.08617081760222
H         0.99839135138468   -2.49929489491542    0.43659028203687
H         1.85859922407700   -0.60864193835363   -1.54779205387910
H         4.49433473521681   -0.32396065047370   -1.73999465758075
H         5.22465594020378   -1.88111539158179   -1.53015668205827
H         2.71002924706029   -3.48819774820762    0.03144221223526
H        -1.14917065387714    0.20484624645053    2.18595332297990
H         2.82333690539926    2.90381883724718    3.21429946045262
H         1.32484533223235    2.86649895074958    2.19638661862294
H         4.56425959966894    1.34608484436497    0.28444524120665
H         3.14964848639077    2.14670031307024   -0.65140809752178
