38
 energy: -53.121868897457 gnorm: 0.151102556577 xtb: 6.4.1 (79825abcba525fcdf90b791dcacef51065a7a4e7)
C         1.07245577104705    1.01806131264553   -0.12467652844095
C         2.50675809026046    0.30770180179736    0.26403305665359
C         3.26453583237229   -0.28703253429861    1.68562703870162
C         2.42826488600567   -1.31472738006347    2.52378960164236
C         0.98852729747855   -1.11064936464715    2.12211296684321
C         0.00744342130585   -2.04873660852841    2.81229836038529
C         1.12147543613976   -1.66499227725517    0.52088898357432
C         2.21063264082428   -1.01721620510109   -0.43615153993522
C         3.49304069646748   -1.78112202936632   -0.72373929446638
N         4.59393553126219   -1.13374090254108   -1.22247184259344
N         3.73600700023566   -3.04572467329194   -0.54296678719187
C         0.58922905526432    0.45912795362483    2.38948696150446
N        -0.55642528104748    1.06900143766482    2.31095156625116
O         1.66068791837924    1.15383006597416    2.74088835140696
C         2.09786920254515    2.43047692943076    2.18148618924179
O         3.27827598949996    2.30065319919279    1.35128681920137
C         3.42686216690951    1.50000639395261    0.14100503314820
H         1.17109992366655    1.22689728746176   -1.19465570051809
H         0.96885843272635    2.01423691010651    0.33319464706797
H         0.21907308984433    0.40389169588902    0.14189568920647
H         3.76979870500530    0.50340116933290    2.24658089051789
H         3.99829154255377   -0.91353734251256    1.15329863796438
H         2.54875986317793   -1.28175751479302    3.61067556630963
H         2.82706669313510   -2.29788326875684    2.24304532767460
H         0.11817414924445   -3.06079715662850    2.42634925748278
H        -1.02905673877762   -1.67297391989440    2.86702844664266
H         0.11130285860821   -2.14516321248849    3.89863661831720
H         0.18978438590743   -1.43022127732277   -0.00528000613632
H         1.35231911373997   -2.73455290706709    0.37647135564824
H         1.74486989942903   -0.86102116003949   -1.42442580505396
H         4.47137768091032   -0.30258902445353   -1.76826644483068
H         5.35797581278740   -1.74698578913746   -1.48354203930244
H         2.95168325853802   -3.47787513641121   -0.05900767175834
H        -1.33273849510859    0.45913134932966    2.05565765832376
H         2.50516049039736    2.99292177487923    3.02813028954873
H         1.34955694907621    3.07861036843219    1.71524959448634
H         4.49896924676999    1.30170526065728    0.20390549918832
H         3.29754422020331    2.23436144913213   -0.66159970592328
