38
 energy: -53.120755327007 gnorm: 0.154282580179 xtb: 6.4.1 (79825abcba525fcdf90b791dcacef51065a7a4e7)
C         1.19433635986976    1.09082404089682    0.02324590089440
C         2.57050100051823    0.27112029423142    0.40689359863442
C         3.26019503887466   -0.44740517043076    1.80578914738671
C         2.35364722795597   -1.40130878014527    2.65799876952122
C         0.98948529854769   -1.15102691680204    2.06448591938032
C        -0.11971393568168   -2.00830209556101    2.65916690807632
C         1.08513195732852   -1.49585769139235    0.40291046137256
C         2.30038864820934   -0.95434185270389   -0.46410486549640
C         3.53638008596813   -1.78841039611179   -0.75988188102982
N         4.24349306318195   -1.25679807310438   -1.80734810022242
N         4.04408459694558   -2.85112570020549   -0.20869819875797
C         0.66981590045266    0.43658094592728    2.33363565842419
N        -0.52174264734827    0.95540368488442    2.29303314792085
O         1.65820693840503    1.16407860771590    2.83157981787658
C         2.12196100779873    2.43501357459969    2.28063340226550
O         3.23729052648954    2.30124581093817    1.36543308087920
C         3.51155082775415    1.43874289925813    0.22142032881005
H         1.37155294814390    1.10510295854683   -1.05684157618441
H         0.94586672463860    2.12242632921706    0.31787073213147
H         0.21762705273181    0.63521239601010    0.14565512045520
H         3.78239979205464    0.29090651476925    2.41974621750824
H         4.05472935189311   -0.99778858236201    1.27657032487602
H         2.54380065111060   -1.19913644073171    3.71624976447895
H         2.68805401708638   -2.42840515774630    2.46383167629354
H         0.28481731309326   -3.01816450133276    2.61425636071191
H        -0.99295648305483   -1.94803042746870    1.98660438099665
H        -0.42968528281687   -1.54905426527525    3.60427266351201
H         0.07452973897453   -1.20923273413698    0.09218755411290
H         1.09454312340848   -2.59871305953165    0.36135719490781
H         1.88898418950141   -0.64164641532164   -1.43928986147493
H         3.90310998731335   -0.37797526353629   -2.14725315782099
H         5.14390975980492   -1.61946142749220   -2.10011002609717
H         3.51541652990426   -3.30400597850565    0.53396168011081
H        -1.16463782315965    0.20422438455778    2.04364554798213
H         2.54836492722689    3.06534223803552    3.06797202229023
H         1.19543080778844    2.91079363896122    1.94507435690067
H         4.57478033289665    1.19199117890278    0.25816279008088
H         3.24952316430381    1.95530007442777   -0.70846409631180
