38
 energy: -53.128325034748 gnorm: 0.157677318720 xtb: 6.4.1 (79825abcba525fcdf90b791dcacef51065a7a4e7)
C         1.09941070653829    1.03857093536402   -0.06455999570683
C         2.58228933518028    0.40122985718836    0.26376336239267
C         3.32858416201389   -0.27812036872265    1.65314911692683
C         2.47731678655614   -1.29247161326055    2.49246888837543
C         1.04126392811768   -1.12556263037543    2.06150499873170
C         0.02463781121671   -2.09489510247088    2.64951438947500
C         1.11189691609018   -1.55875452535416    0.41948023229853
C         2.30461805738290   -0.93467291390682   -0.42298179003285
C         3.45897813047485   -1.89838731164866   -0.64555004553951
N         4.61101265135788   -1.22547770656801   -0.96148524521391
N         3.46579537280896   -3.19224986754526   -0.77518173508685
C         0.63915350308943    0.44201773677755    2.33741769987012
N        -0.59728257893198    0.77833429999577    2.55822156034738
O         1.63541359453266    1.23808353104595    2.69499725288381
C         2.13805608825489    2.50865137921247    2.17838006469094
O         3.26051619739492    2.44004518504796    1.26469420241955
C         3.42643594159811    1.63750060849684    0.05792662439861
H         1.07318868118441    0.99026990439394   -1.15780195299038
H         1.07091730562425    2.12068704646645    0.13781858415569
H         0.13285984478207    0.70386590334980    0.29638186582040
H         3.71706818161244    0.44853480082761    2.37133966555375
H         4.21386618094260   -0.82573490677007    1.29166150130232
H         2.59791715107396   -1.08209457210358    3.55929793374922
H         2.67819173028518   -2.36076384644052    2.34128457890437
H         0.37500016299254   -3.11141709327097    2.82101896965696
H        -0.83980372780768   -2.02677926157340    1.96641364014948
H        -0.29077849039040   -1.78879306405155    3.65302312824366
H         0.13603117899788   -1.56116612966740   -0.07821413037224
H         1.41286569219709   -2.61356520034594    0.54153538288784
H         1.90620295105728   -0.78869479481577   -1.44179170580399
H         4.59414195151597   -0.22872964039997   -0.86181431948471
H         5.41579481746790   -1.84200951606132   -0.97558081102020
H         2.58015980050946   -3.67522392033246   -0.63909400191781
H        -1.33248400398343    0.07375008366159    2.50513052450058
H         2.63226333176761    2.96866736510099    3.04045959669901
H         1.37189053573278    3.22939403166893    1.87680898666998
H         4.49825157479087    1.43450133509370    0.00600422966226
H         3.07013751672214    2.11911599269882   -0.85928267687032
