38
 energy: -53.131706745657 gnorm: 0.161082274647 xtb: 6.4.1 (79825abcba525fcdf90b791dcacef51065a7a4e7)
C         1.15231087902628    1.07105174518908   -0.09909481914490
C         2.57291647692898    0.32089758469907    0.26432968783398
C         3.30898591191712   -0.34994610777998    1.66327071374162
C         2.47721900888850   -1.27780818042332    2.61472121705274
C         1.05446660074494   -1.16036230163036    2.12705499550896
C        -0.02757870710735   -2.02909840699055    2.75424292211093
C         1.10180418203764   -1.59415615165876    0.48435245988314
C         2.23482697829436   -0.98726319013956   -0.44824825248629
C         3.44354450949213   -1.84260436668814   -0.79208341499913
N         4.42393747089619   -1.21758976211137   -1.51871419215311
N         3.72576425142021   -3.03477413277455   -0.35617698181698
C         0.64683117439082    0.42197559343384    2.28570243595502
N        -0.58160572466128    0.83037347449188    2.40732209870250
O         1.65085796886063    1.13809600292744    2.76863085211642
C         2.07771895101843    2.41794839966613    2.20858350246767
O         3.26947613492736    2.32062437074112    1.39023869111465
C         3.46553546547491    1.53690885151014    0.17564168841739
H         1.26795279344591    1.23675186083486   -1.17490566660372
H         1.15334668716148    2.13662112648117    0.17894305551894
H         0.21861912581593    0.61549355858559    0.21269598584478
H         3.81819750484474    0.48753674540375    2.14707982721238
H         4.13870279267800   -0.91520091003497    1.20902833235037
H         2.56819606473259   -1.07092872776914    3.68516561935861
H         2.84959495751010   -2.28726053726853    2.39839316403914
H         0.27296657222752   -2.94368887036713    3.26285021486725
H        -0.81027280773998   -2.25268746170901    2.00864017747398
H        -0.49470035964565   -1.36078854018229    3.48593615307503
H         0.14252480388549   -1.32786939153389    0.02730336436381
H         1.09558903091268   -2.69781647310516    0.48503698192526
H         1.78731860178690   -0.74127379583918   -1.42663637354218
H         4.32907474760264   -0.22295378377456   -1.59237524970488
H         5.38730657170825   -1.52906386640320   -1.57245745109616
H         2.93683942215754   -3.46040541763466    0.12607792941557
H        -1.27691109296255    0.15466198921837    2.09150070100816
H         2.51971539043247    3.02215628446678    3.00771341275936
H         1.22461992211293    2.95617889834527    1.78437278687930
H         4.52906078205378    1.29012937003540    0.20223458754978
H         3.32069465930132    2.16408895209252   -0.71083510391507
