38
 energy: -53.135494910889 gnorm: 0.133694804098 xtb: 6.4.1 (79825abcba525fcdf90b791dcacef51065a7a4e7)
C         1.00325170182342    0.92625559050550   -0.03616809495178
C         2.48824340097881    0.30973499528968    0.32108661401505
C         3.26158682703275   -0.36148741590568    1.69958793923181
C         2.36096948605931   -1.33727524201672    2.53310386909260
C         0.98388283685970   -1.05310544140734    1.98655452722210
C        -0.10644105813003   -1.87171207854433    2.66476255268514
C         1.14965141750233   -1.65441638251666    0.40546773125159
C         2.31194563351515   -0.99541129972013   -0.45277948093876
C         3.58079040373731   -1.78792049214018   -0.72257823706422
N         4.66809689234813   -1.10716595010465   -1.20646227398692
N         3.74242100676375   -3.07217692904359   -0.59811089708311
C         0.71764279212287    0.49712750960094    2.45668517616794
N        -0.50147173455667    0.93135508626883    2.58255629390267
O         1.73608023351747    1.21290687954072    2.90897173103335
C         2.20174663901840    2.43326329378796    2.25493007414065
O         3.23632307886616    2.36760550774925    1.24261292311203
C         3.34444557172261    1.52624797150929    0.05588541538789
H         0.95379356910687    0.93560085531299   -1.12963282721509
H         0.78551297700455    1.97218489082628    0.23097603428653
H         0.18588821841723    0.28073383835964    0.26672737731070
H         3.75827202118881    0.38604673902720    2.32348035050642
H         4.00828010044148   -0.98593594676582    1.18306840692580
H         2.45361563321724   -1.12509359299845    3.60236660473610
H         2.63185382111015   -2.39750263259351    2.44946602557022
H         0.01716970391304   -2.91579604543139    2.38175440197982
H        -1.11876160788921   -1.61275796875845    2.30884761762667
H        -0.14200323660505   -1.83552394485715    3.75913060670038
H         0.17359017455372   -1.54920774390357   -0.08059298943567
H         1.36420680040124   -2.71847205763872    0.60510919943066
H         1.86329322869965   -0.79341308772909   -1.44066894394059
H         4.60623024817366   -0.24750902796743   -1.71723434487538
H         5.51746553429602   -1.64564241733341   -1.33530516146255
H         2.88513872332813   -3.48833939677237   -0.24032595281505
H        -1.17909363776742    0.28692703035136    2.17596097237748
H         2.72891167455089    2.99512056565642    3.03303678909835
H         1.28835232132315    2.85603923552760    1.82551643098200
H         4.40649890550693    1.37157773530967   -0.14613743472733
H         3.02121825478522    2.07664215598761   -0.83448820986813
