38
 energy: -53.125570034946 gnorm: 0.153175759854 xtb: 6.4.1 (79825abcba525fcdf90b791dcacef51065a7a4e7)
C         1.13432448742684    1.21649953691518   -0.12196623050064
C         2.46139359784830    0.34407040694697    0.31470741171182
C         3.22872988516694   -0.41795086190168    1.64864296309685
C         2.36822545008356   -1.34537492159305    2.57462297917900
C         0.98258481035269   -1.17599318920186    2.00265609333847
C        -0.05302066201513   -2.08921122791632    2.64487353650165
C         0.97664640544286   -1.53087624076613    0.34045505973292
C         2.15196153469120   -0.89762168768389   -0.51944424435988
C         3.40478750461655   -1.71873557444953   -0.77834244346627
N         4.53855108144213   -1.11001438312645   -1.25146457138690
N         3.48460983050622   -3.00992549799123   -0.64647841339961
C         0.71541151722917    0.39890082245208    2.38141205424750
N        -0.48180139488804    0.89902668449638    2.46622192023333
O         1.75938602105561    1.03527544818500    2.89059043256337
C         2.37759489845838    2.27431054564711    2.42529991502736
O         3.50300024071910    2.18767105034493    1.51678366535526
C         3.41106488817532    1.51600152022422    0.22515559268652
H         1.41045125562972    1.65218113544479   -1.08743715629357
H         1.09687144372819    2.13219641675959    0.48864062427592
H         0.12524435665520    0.82822190688121   -0.20871194017354
H         3.80594148623833    0.34474256918855    2.17767105837727
H         3.88394973558147   -1.15371258985643    1.15506332227960
H         2.40855811242500   -1.02272511680334    3.61922698558293
H         2.75738311210349   -2.36568159878768    2.46514092543184
H         0.39583950502220   -3.07759171310126    2.56053415651765
H        -1.07007221236176   -2.03221844389287    2.21956949921941
H        -0.12828537454980   -1.85683792342118    3.71284055763397
H         0.03095247191887   -1.09128335724066    0.00513355101261
H         1.01063300185364   -2.63301594795847    0.29314573977593
H         1.81744648794206   -0.64427410975555   -1.54019520351368
H         4.47582758463411   -0.11905519695035   -1.38484847474178
H         5.17783561281197   -1.67809675013712   -1.79605817439827
H         2.60215625233208   -3.46297231393632   -0.41809619958007
H        -1.14358874749915    0.34497331792856    1.92322920985226
H         2.87728837896212    2.72840578573645    3.28735592555646
H         1.62250799884154    3.01060354114296    2.13351036742009
H         4.43831352814839    1.23093245489386   -0.01188712437263
H         3.15621464023843    2.21829040129972   -0.57610374176478
