38
 energy: -53.128661055840 gnorm: 0.156174456676 xtb: 6.4.1 (79825abcba525fcdf90b791dcacef51065a7a4e7)
C         1.07651755736100    1.18075358717405    0.02763517632061
C         2.49380226032114    0.39096944589155    0.31131448544624
C         3.32773426420749   -0.35171703744065    1.61586024482216
C         2.41673344288693   -1.33461621189373    2.42949958048004
C         1.00187426427251   -1.11256677883396    1.95547024028326
C        -0.02455718578084   -2.03547747029174    2.59855923678805
C         1.06168144541413   -1.61927551174140    0.33418714542935
C         2.17215826215753   -0.85771613271167   -0.50763965224766
C         3.34434051069647   -1.78840421146341   -0.77341716326776
N         4.35677966916184   -1.32432305045689   -1.57304302743267
N         3.57436608611659   -3.00434040230950   -0.37401941294807
C         0.66858874510468    0.44307787709279    2.36046311103949
N        -0.52408640664764    0.89832516284362    2.60726914641460
O         1.73276828283581    1.06151861780109    2.84951422959458
C         2.35694378979081    2.31120261049384    2.42222007749044
O         3.42074916064022    2.31666964649093    1.43848556437010
C         3.44314369178101    1.56043995452513    0.19128458925793
H         1.22268509915200    1.64643997601286   -0.95214530427973
H         0.90138726699165    2.10684473380808    0.59722169087073
H         0.14892632138275    0.62318180441408    0.09985190128292
H         3.82967877459158    0.44174174986660    2.17552093113816
H         4.12151347698633   -0.94577759648215    1.13493838157623
H         2.46908321888735   -1.25633518410418    3.51948064778747
H         2.80028543669902   -2.34912000195775    2.26179255015435
H         0.40921111311999   -2.86796224949189    3.15019200271859
H        -0.74166023576570   -2.38506920712285    1.83562123322850
H        -0.53998983342859   -1.56415077760387    3.44259479193791
H         0.06022715847203   -1.47696386973444   -0.08635552042199
H         1.28912293747375   -2.68235028110266    0.52457517461631
H         1.87524065417008   -0.55327214632409   -1.52605588368705
H         4.46331417618611   -0.35538554328967   -1.80442175625375
H         5.11192059136206   -1.98165890142981   -1.73321870962004
H         2.75071963155054   -3.33017030699027    0.12755368048537
H        -1.23230582350875    0.28124210646714    2.21051674031412
H         2.93848273131574    2.72195860668307    3.25416273774152
H         1.62570338233413    3.06078770823062    2.10467577134642
H         4.48880451976939    1.40361916304648   -0.08201752822005
H         3.12660144696738    2.28935377212812   -0.56281122222415
