38
 energy: -53.129985653214 gnorm: 0.158150537151 xtb: 6.4.1 (79825abcba525fcdf90b791dcacef51065a7a4e7)
C         1.16869900927454    1.11017581167068   -0.13906291238513
C         2.59650392786764    0.41394258736633    0.29632348424948
C         3.26229545083657   -0.25745878715985    1.72978339260455
C         2.47160557592695   -1.38469550165398    2.47956281117569
C         1.03851274188249   -1.14290193732242    2.07506674346751
C         0.03356483972814   -2.10563188219087    2.69322521641558
C         1.11150948739087   -1.48102698935840    0.41096564358884
C         2.34233861309078   -0.91307848048501   -0.41625740747993
C         3.48856446323366   -1.86830376581482   -0.70701535527747
N         4.59039510430903   -1.19960264439358   -1.17457707209096
N         3.45110202974890   -3.16510292035341   -0.61847342193914
C         0.58358167193686    0.39153059755433    2.44069400776301
N        -0.62947028907841    0.85917149614049    2.41938058801971
O         1.61089621222858    1.17062499051451    2.74360456485118
C         2.12978520777954    2.44202286363112    2.24542075463838
O         3.32760445830081    2.38201932244570    1.43235619187153
C         3.49308470889694    1.62611092804473    0.19578272542846
H         1.23644007003828    1.14424888141851   -1.23105592236074
H         1.04543424003204    2.15376531845081    0.19028641042961
H         0.27446087512425    0.59583194394840    0.19607229263763
H         3.77596725428339    0.45235208279478    2.38327787185565
H         4.05749505526425   -0.70697580073641    1.11344640108798
H         2.54842205987274   -1.24229259573976    3.56157380750035
H         2.87133780045883   -2.37390195524226    2.22238493606352
H         0.41044654469538   -3.12564641971954    2.63831546559260
H        -0.95534871118926   -2.10661969702561    2.20274119347010
H        -0.27852429781528   -1.70083468675659    3.66222227073178
H         0.13299418547856   -1.29107140446204   -0.04339557087484
H         1.07030297241780   -2.58063934586183    0.49617069991672
H         1.94438453634120   -0.80777269526681   -1.44025012885010
H         4.38270260056681   -0.48659667244827   -1.84704411878846
H         5.33462782468302   -1.84917340595533   -1.40296265689148
H         2.70711033057164   -3.61433035601473   -0.08856283293643
H        -1.41592462615440    0.22279761415806    2.29172259477647
H         2.51992236142016    3.01134990584021    3.09553624456922
H         1.31401827730209    2.97402851085531    1.74650287589465
H         4.54555738531359    1.33556618196312    0.17173251619574
H         3.29548907741427    2.25621704217284   -0.67834375016076
