38
 energy: -53.128092859520 gnorm: 0.147419899885 xtb: 6.4.1 (79825abcba525fcdf90b791dcacef51065a7a4e7)
C         1.05682923603131    1.11563656578490   -0.13504311684897
C         2.45318154644169    0.37585021146428    0.32954839771314
C         3.25922716731774   -0.29848218093029    1.68764697877794
C         2.39196409655127   -1.29356742565627    2.53362711659772
C         0.97681909312110   -1.12916538524003    2.03746900409265
C        -0.12772142354203   -1.98973632805602    2.63604818041675
C         1.20424233413437   -1.64816839002493    0.43503208449671
C         2.28244628797414   -0.91404128373864   -0.47069273911358
C         3.49413782602824   -1.79962681891681   -0.71229390750419
N         4.41520887575826   -1.21858914944081   -1.54525805660556
N         3.86685300058720   -2.96621344137745   -0.27515523985489
C         0.61694387230479    0.44519560985552    2.33243692084779
N        -0.56716475265501    0.97378168534205    2.42794015981954
O         1.66046376846216    1.07943517294287    2.84519852307329
C         2.28498497873402    2.30768687256972    2.36016607461360
O         3.33732238002951    2.39420787090713    1.36792342857980
C         3.42634114718352    1.52456047415371    0.20015452409031
H         1.28758748781343    1.53805743425257   -1.11815541823633
H         0.85487585626211    1.94364968265038    0.56234726964634
H         0.16396684552872    0.50123363135138   -0.17785484197435
H         3.75625293031942    0.45049564120700    2.30953349961111
H         4.12382206866346   -0.81735805789315    1.24321170421603
H         2.50262430336806   -0.99425502357094    3.58009429719130
H         2.66493205875021   -2.33869257492560    2.33957133620834
H         0.05973631916873   -3.05969957804990    2.56173269021777
H        -1.03471291148587   -1.81350685702014    2.03203230029631
H        -0.41046424357022   -1.59282493116765    3.61723803427346
H         0.26976587484516   -1.80172846991257   -0.11559708151233
H         1.56433380237309   -2.67721483664993    0.60679574989253
H         1.99676688831354   -0.74928431108170   -1.52390699204037
H         4.07337816070387   -0.75293676862156   -2.36382097030104
H         5.22939358166146   -1.80233970814343   -1.70121652194775
H         3.15265348821108   -3.29903497871315    0.36926935752849
H        -1.33014764430482    0.30942235045611    2.30041567665439
H         2.72694029261399    2.56115490377374    3.32942666292020
H         1.46468573527779    2.98616663849459    2.10679065057787
H         4.46842747295591    1.22319269983564    0.07395250349929
H         3.13783477047459    2.13450094717417   -0.66292805848795
