38
 energy: -53.128428053019 gnorm: 0.157665750356 xtb: 6.4.1 (79825abcba525fcdf90b791dcacef51065a7a4e7)
C         1.17110197210297    1.13998346888761    0.01983030572347
C         2.57832547844199    0.35942860147278    0.37109232605170
C         3.27811066925466   -0.47374370340810    1.69962161696302
C         2.31403332478022   -1.45530333249780    2.45136481991229
C         0.93195667465343   -1.07941136583936    1.97765008199544
C        -0.14334922671577   -2.02944638005767    2.48759109369530
C         1.05032407032226   -1.45302120613797    0.32377753813137
C         2.26732495060255   -0.85453052288964   -0.50237110966822
C         3.46843782695868   -1.74398639770591   -0.77990550331132
N         3.89164771311033   -1.50295915443343   -2.06154709943595
N         3.93531715384506   -2.80474145538771   -0.19019917194635
C         0.69569692003682    0.49708193747740    2.37005165790565
N        -0.45194799266289    1.09919638484400    2.26513886046223
O         1.78257164363337    1.01471009836713    2.92221330478200
C         2.30171219593757    2.33972842591284    2.59250890695538
O         3.46040573138562    2.29649150258643    1.72359853595993
C         3.53017395584889    1.52736789362021    0.48607018803325
H         1.36221339156034    1.47203192083170   -1.00555684630357
H         0.97179849900741    2.08706824127137    0.54523757192643
H         0.29452725237234    0.50145138259844   -0.00067816458858
H         3.71280838921534    0.25028790194877    2.39356784173778
H         4.04831643971679   -1.05266458661355    1.16491336193776
H         2.44807953936568   -1.30499349374285    3.52670928687383
H         2.48607281586189   -2.50975032582803    2.20036744077741
H         0.25389016911732   -3.04317925457937    2.48201575361249
H        -1.02415798418293   -1.92757154378350    1.83007834011934
H        -0.29627280388040   -1.78726098563588    3.54502965343903
H         0.12990788627346   -1.34109237428703   -0.25959662206118
H         1.28541948559835   -2.53135004574813    0.33027977272998
H         1.77858009313283   -0.62566935649281   -1.46505946704812
H         3.72662121851516   -0.62820080925972   -2.52120970713947
H         4.76149459573070   -1.90226901114919   -2.39606544901623
H         3.56132048281402   -2.96275286041145    0.74323162897785
H        -1.22347391010885    0.49378043042556    1.98585765027043
H         2.82396582959232    2.68928286659516    3.48922484012963
H         1.49810288120087    2.97655592087213    2.21029488267173
H         4.59260538186488    1.27498469110510    0.47072174448420
H         3.36656352359298    2.22701227378291   -0.34091482631552
