38
 energy: -53.121976388435 gnorm: 0.152170337548 xtb: 6.4.1 (79825abcba525fcdf90b791dcacef51065a7a4e7)
C         1.21402351973424    1.32127475091437    0.02245289175949
C         2.52097984913707    0.36730474210617    0.33024381470981
C         3.26634226986209   -0.35185309856029    1.69995630281829
C         2.45832528490923   -1.39518589046067    2.54647121072270
C         1.02035050860737   -1.19462666311206    2.13678741429499
C        -0.00619120366425   -2.05713194526777    2.85871945673647
C         1.08590914581371   -1.62875099289739    0.49479847802876
C         2.14585306468467   -0.89966216177449   -0.43619677673232
C         3.30818397792308   -1.78315549358974   -0.85958263778091
N         4.55924064802574   -1.22780635250725   -0.78052288447199
N         3.30794791408899   -2.99786365330946   -1.32371104549639
C         0.71902224046686    0.40197309842113    2.37173267253328
N        -0.49945664508109    0.83452409281206    2.23445123607436
O         1.72506788839661    1.13409493368481    2.82559148153628
C         2.24156279734885    2.38325144890130    2.27176256646173
O         3.42962247470739    2.24805812102821    1.45342135793418
C         3.46839196133855    1.53502904918363    0.18142229530343
H         1.43378882379879    1.62779125348535   -1.00514109684822
H         0.96508768066500    2.29209417144668    0.47883521466343
H         0.25852770056161    0.83499581359861   -0.14213017530597
H         3.75113420548983    0.40904983125756    2.31700470762707
H         4.05224738241655   -0.91752110181942    1.17397902224743
H         2.66972165302702   -1.23416738713851    3.60774957479892
H         2.79546765707506   -2.40708035790076    2.28789756363783
H         0.32930662274159   -3.09289399398334    2.86979840046766
H        -0.96935600206902   -2.02275979905780    2.32052089616788
H        -0.24184418928652   -1.70782705431905    3.86999066030710
H         0.12934704025450   -1.25693299614150    0.11170611259559
H         1.21473289014202   -2.72381827009763    0.44645288745702
H         1.63228579883820   -0.59037267389988   -1.36280700076019
H         4.63881242435604   -0.35019371020190   -1.25716741030847
H         5.13404623785122   -1.95440416574940   -1.19239501080621
H         2.42249660724803   -3.49762698234200   -1.37215449248047
H        -1.18338216980620    0.13398417868098    1.94937507445993
H         2.64431180477342    2.79016607640126    3.20517049142497
H         1.47271868156511    3.09563261746552    1.95741158964135
H         4.50261991150657    1.24969684063702   -0.02266460862953
H         3.28824601517248    2.26089026116317   -0.61910738885742
