38
 energy: -53.135801626786 gnorm: 0.154566307749 xtb: 6.4.1 (79825abcba525fcdf90b791dcacef51065a7a4e7)
C         1.07273945559050    0.97547879072597   -0.13846715084389
C         2.51144784588723    0.31150916699308    0.31118983949294
C         3.29337549498168   -0.38005989219809    1.67470986321675
C         2.45116446175678   -1.40468462794158    2.51068055382654
C         1.04803538532050   -1.10665229871729    2.04351698946391
C        -0.02070695258869   -1.98585202801301    2.67888050098982
C         1.03619216972547   -1.57045450095254    0.40839106567174
C         2.21890358381818   -0.97092493061973   -0.46542917192299
C         3.47415859146057   -1.78790135111487   -0.72564755684118
N         4.27157994887229   -1.30937042807151   -1.73308650720704
N         3.89728415541965   -2.90667116186821   -0.21550050163724
C         0.73238152147143    0.47000925850663    2.37462083733944
N        -0.45926083554711    0.98707453235727    2.31744264720260
O         1.69173054850834    1.18737880167130    2.93955308355117
C         2.12348290890973    2.43445189884156    2.31322723592462
O         3.33085291875143    2.26627450328400    1.53001628003965
C         3.40641567030252    1.52845626027436    0.27390734286445
H         1.34392631594135    1.24536754342031   -1.16404811327947
H         0.89471461835216    1.96710135723735    0.30620810372897
H         0.16357882790710    0.38390985553315   -0.13801507928027
H         3.71970845761224    0.34391518548517    2.37388475015274
H         4.13254145206446   -0.91206492673432    1.19821183351651
H         2.51174009611738   -1.18522647137202    3.58077207533475
H         2.66992650115093   -2.46170067003569    2.31239797168629
H         0.11013601847598   -3.04246787366483    2.45100415372936
H        -1.01573241011175   -1.71475602499743    2.28523489369947
H         0.02004058759949   -1.83065419946834    3.76260969411290
H         0.03640940366063   -1.47123410778382   -0.02819701254997
H         1.26015776259148   -2.65056061874766    0.37212271429861
H         1.85993247850863   -0.76442257015897   -1.48842201573239
H         4.09295130447121   -0.41219758463531   -2.14161840532952
H         5.18309515018907   -1.73189882568764   -1.86944732912396
H         3.26046839576732   -3.23929470377301    0.50558301944568
H        -1.16427838543372    0.35451970706130    1.93981404419251
H         2.48640602180608    3.04269375772347    3.14831123636359
H         1.36038170674407    3.09696870056505    1.89349781236589
H         4.48228461328834    1.34099015788491    0.28138184998309
H         3.14895840404156    2.28159680016623   -0.47886747473324
