38
 energy: -53.129519813384 gnorm: 0.149224085213 xtb: 6.4.1 (79825abcba525fcdf90b791dcacef51065a7a4e7)
C         1.19142874396295    1.11449125472761   -0.03882391354343
C         2.57291836214203    0.33275489754988    0.40083914862013
C         3.29357751786879   -0.41097226652934    1.77065145778070
C         2.34340721601372   -1.35226350050121    2.58867926290007
C         1.00564274370344   -1.10590874415331    1.93635123205802
C        -0.04674814120659   -1.88814994521679    2.71060008890401
C         1.22244049134116   -1.63079721262188    0.33435860494457
C         2.40214095627377   -0.92009745493340   -0.45622124249452
C         3.53075007822956   -1.88071700132645   -0.79427561404687
N         4.29337002847885   -1.42259356643194   -1.83751078986210
N         3.87927609849829   -3.01201580682621   -0.25610856545243
C         0.62792635346959    0.43109840882480    2.37231931439345
N        -0.57205750870589    0.93071919206297    2.40480266112524
O         1.70438071281665    1.08093345491303    2.78834636355262
C         2.03122995400302    2.40986417318132    2.27746652945814
O         3.17952834667263    2.43484068813935    1.39415890535287
C         3.45465864275032    1.55241723282875    0.26565222551142
H         1.31690982725992    1.21811186751455   -1.12128214747348
H         1.00809740897177    2.12977640211950    0.34631233112606
H         0.26289504386996    0.56555506113950    0.07528692125851
H         3.62734483594687    0.40664466394378    2.41473776698000
H         4.19406414167841   -0.82866785785376    1.29218153511896
H         2.35108121114359   -0.94342865838480    3.60343162059483
H         2.61827075060767   -2.41468017249709    2.57539076269023
H         0.00172738162540   -2.97575209461073    2.69459241193125
H        -1.05303168544181   -1.58429096209684    2.37357083386940
H        -0.04109752097684   -1.53706372884169    3.74834872798408
H         0.24040944418785   -1.56575950634135   -0.14668666632064
H         1.40150090695863   -2.71240101758639    0.46154265770018
H         1.98919692530125   -0.65459020800386   -1.44465484022453
H         4.19767660120598   -0.48972123187512   -2.19009778500563
H         5.19127371145590   -1.85052297784496   -2.03405563905191
H         3.34945252430814   -3.40843074052966    0.51737469002814
H        -1.29855509910190    0.26612060233983    2.13968253237718
H         2.37325670245379    2.97362827229123    3.15166580675489
H         1.17178479263134    2.83320995027903    1.74873491181725
H         4.48652672576359    1.27017951200037    0.48538736137930
H         3.25886901137625    2.24148125145544   -0.56322173753504
