38
 energy: -53.132017739025 gnorm: 0.154848229895 xtb: 6.4.1 (79825abcba525fcdf90b791dcacef51065a7a4e7)
C         1.15180115039443    1.28461115461022   -0.08857930068044
C         2.52057428902960    0.43633864335530    0.25757487390981
C         3.29352168476105   -0.30270636160737    1.60116344549917
C         2.49789104643341   -1.43653554240069    2.33561938692287
C         1.04893647636124   -1.17300760696174    2.00863324564141
C         0.06281475958459   -2.12916593617865    2.66606333828414
C         1.00837161778868   -1.46951281505174    0.33551380027054
C         2.20108774905517   -0.84647125946687   -0.50772475470247
C         3.32187362846010   -1.84513547335444   -0.74717830162683
N         4.41312770465740   -1.24384264467692   -1.31938226732209
N         3.48143737946017   -3.09101723545761   -0.41065314777777
C         0.68364462948236    0.36945791133762    2.43582261068508
N        -0.48850667434321    0.91884008543978    2.55779751236083
O         1.70459673118089    1.08473399691315    2.88320944041544
C         2.19747943738824    2.35685486643326    2.36104031825457
O         3.34718086591519    2.28233416566354    1.48236025296628
C         3.52313976789965    1.56639563128945    0.22364438782319
H         1.24937207160599    1.39318839261063   -1.17342466076581
H         1.21710978208231    2.32014600644661    0.28040116872334
H         0.14848294503122    0.90573830664632    0.07370129269239
H         3.63985176799338    0.40982033388645    2.35422812150184
H         4.25116481235628   -0.69638145642247    1.22404438832094
H         2.68223652715743   -1.18799589354981    3.38498678690264
H         2.81238662771984   -2.43937898564603    2.01962369972615
H         0.53672064243831   -3.08907150975739    2.46736993282967
H        -0.98033909092865   -1.98684676549465    2.33424884740280
H         0.11670257346806   -1.98895204626296    3.75126002864257
H         0.01852281846829   -1.18912695881500   -0.04078734274987
H         1.01791992235390   -2.57250975492303    0.29794005841420
H         1.72151471692812   -0.70213981026307   -1.49118597390924
H         4.29077537257314   -0.58835169284597   -2.06710356247114
H         5.08353350058322   -1.95202879529570   -1.59689431516926
H         2.68056630888201   -3.58314239775236   -0.02007342681023
H        -1.34340051314142    0.39914986472097    2.36067495655958
H         2.75100363560348    2.85004761639336    3.16689917746067
H         1.27587393676401    2.84575382576228    2.03081939987211
H         4.58474943205699    1.31106143026749    0.24561603231553
H         3.25766578858904    2.28888896447731   -0.55590791568872
