38
 energy: -53.122696813276 gnorm: 0.159218729336 xtb: 6.4.1 (79825abcba525fcdf90b791dcacef51065a7a4e7)
C         1.14694885893297    1.08702316198498   -0.01067683639310
C         2.55077213476562    0.30426183158135    0.34917564719087
C         3.31077243955784   -0.33833679538782    1.74857980836448
C         2.36657925280498   -1.34149397620203    2.49704300911725
C         0.94679055625087   -1.13142255409045    2.03238578999639
C        -0.12919582094929   -2.01165911557312    2.65393710480093
C         1.06576574346576   -1.56578927228675    0.39346541479488
C         2.28290394988946   -0.97647818454749   -0.43905536337301
C         3.56153495922804   -1.77143548827869   -0.64875719797475
N         4.38803286806217   -1.21967178196512   -1.59335443259375
N         3.95803476091070   -2.96691884043042   -0.32543287462629
C         0.63704909877644    0.44673041667289    2.36196464519118
N        -0.54619980340360    0.98181770689129    2.42708742565220
O         1.68097107042894    1.13868558147706    2.79271170480793
C         2.15930461200850    2.40842828602784    2.25156850584504
O         3.32095580846301    2.23261475433725    1.40356999119891
C         3.44992631524016    1.50185909367839    0.14768068856412
H         1.21161336163346    1.16706577285851   -1.10045215415841
H         1.06183094608748    2.10090223065786    0.41068810244592
H         0.14183205647179    0.67946932286686    0.00225125984250
H         3.73755814498840    0.30026670217725    2.52625889340776
H         4.07441376086468   -0.99579017183743    1.30261319014934
H         2.42514805289439   -1.26719612911137    3.58698643895677
H         2.68104528645702   -2.37848736509875    2.32322830141033
H         0.29543449718251   -3.01178863068268    2.72404134591634
H        -1.08788264650208   -2.08512755084868    2.11167562021062
H        -0.42175358695712   -1.53666584351581    3.59680880134265
H         0.11771818265885   -1.18630963235312   -0.00304495123405
H         1.09103165202505   -2.66749762780302    0.33259231921979
H         1.81066890967213   -0.90617336616405   -1.43407754575239
H         4.24289671760010   -0.25372918686992   -1.81610097193183
H         5.36010994178719   -1.45492049373795   -1.75981370618701
H         3.30113107446633   -3.53867488753867    0.20154600642493
H        -1.33902651736542    0.35865934302170    2.27583211928020
H         2.58185043662848    2.97302344273030    3.08925816478283
H         1.31797506210687    2.91868786786075    1.77279455144844
H         4.49161201049192    1.20047540976381    0.01825043677877
H         3.22399596121019    2.17387602526185   -0.68749807663905
