38
 energy: -53.128653818831 gnorm: 0.163926803740 xtb: 6.4.1 (79825abcba525fcdf90b791dcacef51065a7a4e7)
C         1.23062839718136    1.17916141062986    0.01720215091096
C         2.60318336889541    0.33584393356038    0.36047667197369
C         3.23979661065845   -0.47140694195769    1.73595298279616
C         2.31960390129892   -1.39364239196360    2.60816249712750
C         0.98193080271382   -1.14911031234023    1.95496186913724
C        -0.14040510504408   -1.95003078170024    2.60131911316665
C         1.10409267833490   -1.63042854927918    0.32944693222131
C         2.25339769256241   -0.89113962541934   -0.47947439394721
C         3.42666189966653   -1.74826845104612   -0.92625232425655
N         4.29935655882673   -1.15033728295266   -1.79842677095876
N         3.74853829891089   -2.96336148980097   -0.59327236506185
C         0.68683612564495    0.41757647626752    2.34680429691192
N        -0.50900166089363    0.92746490292028    2.37176743631133
O         1.66997740099934    1.10405258367649    2.90921150082876
C         2.32370586240864    2.35773759080775    2.54206238904167
O         3.42222518172989    2.24269141352757    1.60426440847378
C         3.54482888320911    1.51752335687117    0.34450460140085
H         1.19480061931981    1.28134058514711   -1.07205188103974
H         1.05590212507079    2.13418574912927    0.53695543969711
H         0.29374200698853    0.65469490960548    0.17116917258333
H         3.80430623120087    0.19310876824830    2.39511380955754
H         3.93943541980138   -1.15841924068554    1.23316189281168
H         2.27554776566550   -1.08758038670441    3.65759675942939
H         2.68439166124501   -2.42674226378130    2.54420720296837
H        -0.06165501324030   -3.03194260846949    2.50777882786355
H        -1.08951564083969   -1.65221458764207    2.12275847616214
H        -0.30581614867953   -1.58934665790372    3.62247622514147
H         0.10537397693712   -1.38689495911509   -0.04906567346441
H         1.32929778722883   -2.69594849749404    0.50848635780570
H         1.75018429339661   -0.54437067689314   -1.39846591933236
H         3.95726644447162   -0.29394346151160   -2.18994892500301
H         5.02999224951371   -1.61367987850757   -2.32707562369647
H         3.11761184356304   -3.38900229336915    0.08266837912718
H        -1.24629960299718    0.32733906504791    2.00295929937604
H         2.82073194832296    2.80862589660213    3.40733773868919
H         1.56036210075308    3.03849099189393    2.15308185181151
H         4.53076967631228    1.05399645295225    0.42037930205840
H         3.44960147815160    2.11538901276953   -0.56854700832082
