38
 energy: -53.125381753679 gnorm: 0.164253624790 xtb: 6.4.1 (79825abcba525fcdf90b791dcacef51065a7a4e7)
C         1.10655591529255    1.13196539123535   -0.04715765842125
C         2.52654414458994    0.35610419057536    0.26041630167566
C         3.31221665341822   -0.32328500826767    1.62790104066726
C         2.43737172576178   -1.34286372133667    2.43606431827419
C         1.00669043334902   -1.14014153496364    2.00260029606677
C         0.03860627632199   -2.04080612130230    2.75791845314259
C         1.04498823085455   -1.51372089213090    0.34493286959272
C         2.23168685427865   -0.91924016629977   -0.52692886229981
C         3.39708331675626   -1.86812999469194   -0.75559550758273
N         4.37275076274915   -1.28869323308935   -1.52509664633490
N         3.49108292881090   -3.15098166346338   -0.56484215800584
C         0.75291101354904    0.42500239471111    2.42809918772701
N        -0.44172963809999    0.93514300270134    2.37128690244489
O         1.75450132784256    1.11828489355070    2.94799752660910
C         2.24623498978057    2.38091398687606    2.40224002823168
O         3.34951920867582    2.33985974280549    1.46387770553808
C         3.40616478388557    1.58400737555084    0.21753360227369
H         1.21575287866754    1.32198650828599   -1.11961584471150
H         1.08325851369756    2.12747423685257    0.42312269584081
H         0.16946266933125    0.60871251564506    0.10965349348856
H         3.77147225273789    0.49106031208109    2.19417944511590
H         4.16591534214777   -0.92433783373423    1.27546198598650
H         2.51232165279754   -1.17848376237784    3.51508651480077
H         2.82953623886476   -2.31853881051614    2.12186557560164
H        -0.37715358480523   -2.84820963567221    2.15731220799878
H        -0.81204905167370   -1.46527206208456    3.16248195592382
H         0.63175873839054   -2.56113986612124    3.51794387793936
H         0.06783405796115   -1.31014663112486   -0.10645020276627
H         1.20017482260645   -2.59067214401338    0.52986081807854
H         1.81661071566195   -0.85973521897680   -1.54780535159070
H         4.48075296675562   -0.32437389252034   -1.27579891289307
H         5.14963003706458   -1.90576960069501   -1.73404602349940
H         2.63391909124996   -3.49255168146542   -0.13503492359636
H        -1.16078970805026    0.34451064031810    1.95429200681834
H         2.57409106040691    3.02076633175512    3.22815527699816
H         1.34392998963883    2.88242377011206    2.03925466328132
H         4.49483459211633    1.60247663297647    0.13297403654142
H         2.96825632739789    2.31750738541061   -0.46831534014309
