38
 energy: -53.116991278880 gnorm: 0.158648146873 xtb: 6.4.1 (79825abcba525fcdf90b791dcacef51065a7a4e7)
C         1.19610704704935    1.12328731345479   -0.14906169207457
C         2.57248120978021    0.37474433179539    0.35907852928937
C         3.31662750604761   -0.31544737761524    1.74426702603220
C         2.39097394449666   -1.28169914566535    2.56130146996789
C         0.97512337685330   -1.21432355401342    2.04490625415737
C        -0.03996823265515   -2.00136731598315    2.86285509472124
C         1.10718622122031   -1.64324554022971    0.40555427225778
C         2.24681746691879   -0.90143121016986   -0.41466275591288
C         3.39656808444073   -1.84097975488282   -0.74047144223110
N         4.29224228411957   -1.14965901817415   -1.51484170000309
N         3.64982889234878   -3.09979230828909   -0.53509111346818
C         0.69318893972343    0.39182817308659    2.23442799636515
N        -0.48659977537956    0.91051430513378    2.06208914014541
O         1.68465465052966    1.06726476474098    2.79558685219439
C         2.15347595725139    2.34945841502228    2.27590279276960
O         3.38401919939684    2.34606313224135    1.51092097030716
C         3.50366189888401    1.56256687156188    0.28629270286900
H         1.40991617317492    1.26419488687160   -1.21331226248068
H         1.03548478936926    2.16059660639168    0.18400610860587
H         0.35263582946257    0.44516081006369   -0.07675805479907
H         3.74871152589295    0.51282527705056    2.31172895924201
H         4.09781656958583   -0.98905038421931    1.35660496800038
H         2.30346609705119   -0.97544271093983    3.60795162185535
H         2.77422401936387   -2.30432624671783    2.66997035843500
H         0.36574116300344   -2.73603472559952    3.55650359552165
H        -0.76993113180641   -2.45683368105414    2.17131324426400
H        -0.61432826747023   -1.30488492716007    3.48353095942139
H         0.10972765336876   -1.45605002683252   -0.00682139682157
H         1.31981181027388   -2.72269327429317    0.31787209576581
H         1.74516275975061   -0.75357074662195   -1.38651546430159
H         4.21944602387241   -0.15953987258571   -1.64934227263208
H         5.27296820676115   -1.37828051466259   -1.39697156789538
H         2.91783172131421   -3.63656733447675   -0.07445363533101
H        -1.05635957536428    0.08210353121711    1.89212417262775
H         2.41881330422547    2.84164023082361    3.21738555358650
H         1.27182846031051    2.78626496402470    1.79702651540582
H         4.57913834291973    1.44326803810183    0.13860520732088
H         3.26637280807927    2.25389140139596   -0.52975823460975
