38
 energy: -53.129063415749 gnorm: 0.154389540133 xtb: 6.4.1 (79825abcba525fcdf90b791dcacef51065a7a4e7)
C         1.20927966670523    1.13415050116334   -0.08137158063503
C         2.56926095341865    0.32069617698447    0.36770734481580
C         3.25870588321816   -0.38157403835834    1.77495562510362
C         2.33238756092956   -1.27805688967505    2.66729812538481
C         0.93791275030871   -1.12021574238671    2.11379793769388
C        -0.10585423829975   -2.10242714420191    2.62828833169979
C         1.17520642879018   -1.65247774837697    0.51715194548924
C         2.31311204502221   -0.99126938331108   -0.37154268395983
C         3.57116117587472   -1.77845295888447   -0.70091127758295
N         4.18796529406631   -1.08622882116615   -1.71095303565897
N         3.93889962330284   -2.96643675930839   -0.32091905072813
C         0.60586721683896    0.47272663026759    2.33153436688299
N        -0.57562313855267    1.01504056995994    2.35630274774219
O         1.66656881054262    1.11929871742451    2.79085422148064
C         2.17370930535328    2.37073898162825    2.23354707755406
O         3.22573849133834    2.38850554954733    1.23737223720421
C         3.54592397539115    1.45536575263797    0.16283673759535
H         1.44197543663500    1.49701172290311   -1.08754401829372
H         0.89450435325845    1.94436643480578    0.59480212731760
H         0.41909313556981    0.39543610315106   -0.16157976383552
H         3.69392550513924    0.42242400538773    2.37405183207561
H         3.95384057347877   -1.06910592985419    1.26665758078928
H         2.43827701418530   -0.91094092283538    3.69245199116260
H         2.61473025658376   -2.33806415620867    2.70080816030885
H         0.17271808825658   -3.07001072878723    2.21396475371093
H        -1.12943596727977   -1.84850670875122    2.30220487863193
H        -0.11194821427031   -2.24197931625396    3.71489025512910
H         0.19147190535416   -1.60680001355997    0.03736097752984
H         1.51299487225645   -2.68418170093136    0.71612717558994
H         1.80983885502132   -0.94634609924949   -1.35272353072348
H         4.03392089806348   -0.09796892991224   -1.76873134204140
H         5.06667627291632   -1.45643523180363   -2.05562493815257
H         3.26517758623415   -3.49280615917080    0.23150112153558
H        -1.35561466769427    0.47977273019962    1.97567134660976
H         2.65984823069370    2.90083734746552    3.05919911980219
H         1.39848529542609    3.06160358593833    1.88835353376375
H         4.56191324774631    1.10193291256907    0.35136904373684
H         3.38268106839788    1.90641899455428   -0.82208842894928
