38
 energy: -53.128193992298 gnorm: 0.153230520864 xtb: 6.4.1 (79825abcba525fcdf90b791dcacef51065a7a4e7)
C         1.14787664874175    1.16958614964487   -0.00526867149153
C         2.52516883634236    0.34470924392280    0.36293400327044
C         3.26215244242758   -0.38308383650424    1.73261931182712
C         2.35920511270285   -1.35266679538048    2.57084199362599
C         0.96971033742989   -1.16239347744058    2.01502134457483
C        -0.11325775315938   -1.90566230830126    2.78548916799675
C         1.18859275297634   -1.67918803411224    0.41068242990235
C         2.24420270370815   -0.89695032777075   -0.48127922604484
C         3.47805018136822   -1.73046546482850   -0.78738727523472
N         4.09917738408575   -1.39966852670031   -1.96406917513775
N         4.02527918519890   -2.73288655954348   -0.16559670232713
C         0.58952816821266    0.40523742141131    2.32018298545832
N        -0.61222024158981    0.85990686807975    2.12089987730120
O         1.59949834032792    1.09795172826956    2.82439042568849
C         2.23474282491784    2.34962223978689    2.41982795190801
O         3.35121612022994    2.27959276194545    1.49894327053430
C         3.49334458860694    1.50139678871612    0.27333906881018
H         1.48305356285447    1.46174018976243   -1.00551914968440
H         0.84315502426856    2.06748343067928    0.55479331983178
H         0.34226067919190    0.45093388786766   -0.11038241186390
H         3.73665720256616    0.35595510024693    2.38332040269100
H         4.09154724334708   -0.96433675371478    1.29842058030406
H         2.53641360447779   -1.09566347670083    3.61939985554633
H         2.70533684768852   -2.34208483864240    2.24572588083261
H         0.16382705877604   -2.93529958482231    3.00584259776177
H        -0.99624726062208   -1.93380133277223    2.12362566878661
H        -0.48545250857935   -1.34870405896884    3.65237108172553
H         0.23424063506128   -1.70083520417108   -0.12668416346582
H         1.50300534387146   -2.72144529359382    0.59220302290745
H         1.71344036684708   -0.68017035393858   -1.42431454293806
H         4.07832079143972   -0.42011023249709   -2.17324893422006
H         5.01518173280919   -1.80004879814835   -2.13323228821380
H         3.47142907629916   -3.02394371141254    0.63731672170099
H        -1.30441646914153    0.18862823914166    1.78919506018009
H         2.76735613741569    2.73550039387044    3.29530366615285
H         1.48303244823817    3.07416475145520    2.09211712025637
H         4.55733021534973    1.25724080324189    0.30521117592090
H         3.50119068852068    2.03207105446181   -0.68504399347421
