38
 energy: -53.125439147365 gnorm: 0.157943901903 xtb: 6.4.1 (79825abcba525fcdf90b791dcacef51065a7a4e7)
C         1.17211811838975    1.11014636236307   -0.09130757447660
C         2.54350293155031    0.29760061972633    0.32342370138543
C         3.29502786919246   -0.42792313066690    1.68639510252568
C         2.39537310536743   -1.30809374967979    2.62124442984601
C         1.00609168822802   -1.15420854206123    2.05374749878769
C        -0.07030647947749   -1.98252264438237    2.74233436032776
C         1.12835364738225   -1.64296777428519    0.43046195737035
C         2.24454692409545   -0.96916580093225   -0.47612906625003
C         3.48604908600722   -1.76837341216900   -0.83774880104963
N         4.42543050230903   -1.06179112410881   -1.54351784443012
N         3.82220884145327   -2.91408719062583   -0.32270731747086
C         0.68301326986122    0.41755535550186    2.40060103081077
N        -0.52724872851323    0.89197934359365    2.37187609552301
O         1.64452136491480    1.19913337505218    2.86831465026761
C         2.15664895369940    2.41853603702076    2.24809860763789
O         3.26906375176052    2.30851579955468    1.32621237350623
C         3.51618732507130    1.44467261811770    0.17703873447113
H         1.19588020941486    1.02294290221229   -1.18219229946912
H         1.07436887823658    2.15888624946786    0.23014844931345
H         0.22224168064343    0.62027135879347    0.09385261858597
H         3.62274171848734    0.31489391783476    2.41822275096917
H         4.15263603557973   -0.91947035514241    1.19939531399658
H         2.48453173891521   -0.84904893907488    3.61031255527951
H         2.70844087417901   -2.35948744399748    2.58937596279931
H         0.20417032410328   -2.98432875105619    3.06872609335807
H        -0.81741812856372   -2.25371370847035    1.97630227301481
H        -0.60612020954520   -1.55769722611456    3.59827985574748
H         0.11156350176142   -1.57986557414963    0.02775196143368
H         1.25327017692214   -2.71482816764451    0.66201403260876
H         1.72898970282233   -0.77739106446222   -1.43291590374956
H         4.15568412577756   -0.40544827938340   -2.25074947599400
H         5.33150236110796   -1.51646642773579   -1.56050740208564
H         3.09445205778861   -3.41420594181107    0.18363789543647
H        -1.29389077207378    0.27989914782709    2.09367379458369
H         2.47134915543833    3.00919751967013    3.11477006937927
H         1.33901762646675    2.97527364573098    1.78018088770794
H         4.56287996956198    1.13545673535474    0.21594177221353
H         3.33164978741949    1.96632712982495   -0.76847558053085
