38
 energy: -53.126139147835 gnorm: 0.151065957527 xtb: 6.4.1 (79825abcba525fcdf90b791dcacef51065a7a4e7)
C         1.17009589386309    1.09770146696772   -0.18180127695425
C         2.54242923611838    0.33371822271920    0.31414197388583
C         3.24545659646448   -0.35713271609741    1.72032225806737
C         2.36628343399526   -1.29689389630337    2.61582533064669
C         0.98210759099197   -1.10493969472854    2.04745299532174
C        -0.03754699879061   -2.05269048467536    2.66467426383559
C         1.19415611379589   -1.65131824962516    0.45202345694159
C         2.34854933011848   -0.99313725230999   -0.41744642607975
C         3.58410603400171   -1.80865692046186   -0.76263698233208
N         4.29756305954473   -1.32022820426787   -1.82669636263738
N         3.94187379139161   -2.92416455128305   -0.19821151275600
C         0.60647007204462    0.43554165151787    2.47282630000834
N        -0.53344501909715    1.05081943062603    2.36029106344040
O         1.63104254644889    1.15912263216447    2.89803197442847
C         2.11054019145313    2.39982267144152    2.29418522965504
O         3.27062970685198    2.31056880050133    1.43066253699456
C         3.43553539750520    1.54711901808756    0.19865372701045
H         1.25417299550427    1.07888385961565   -1.27302787969562
H         0.98701105135668    2.12392363654944    0.17329341026474
H         0.25932903894538    0.57552637270979    0.09089630323733
H         3.69808044768438    0.49472789252389    2.23433625883708
H         4.02796039904108   -0.95755244507039    1.22893321901466
H         2.49273254587334   -0.97206093348562    3.65285055899618
H         2.63245184818182   -2.35655000147513    2.51219595639302
H         0.06192766253759   -3.12740750875183    2.52124253599919
H        -1.01178242825000   -1.90376036226144    2.16747137093700
H        -0.26073429151412   -1.87349070119787    3.72216684333422
H         0.22427146548710   -1.51359259252342   -0.03825691733884
H         1.15121022149526   -2.74417656417132    0.60008272289408
H         1.80272149296280   -0.84336230185063   -1.36489420174930
H         4.44499442698647   -0.34189081425620   -1.98432109714384
H         5.04774282385615   -1.95890207571190   -2.06609247161767
H         3.26236956382285   -3.35410358670539    0.42593638931218
H        -1.30729107994423    0.48112883226967    2.01912599025931
H         2.58050458305444    2.91907861829252    3.13593540864405
H         1.36783114062380    2.98957974161782    1.74829640099016
H         4.48946415137790    1.30388245953114    0.34952969746489
H         3.24633556004342    2.32524527430079   -0.54894094603744
