38
 energy: -53.126040921594 gnorm: 0.147344017565 xtb: 6.4.1 (79825abcba525fcdf90b791dcacef51065a7a4e7)
C         1.15086845529678    1.14569394648854   -0.06339187043429
C         2.54419638380927    0.38345978054614    0.37314596533211
C         3.27748978756500   -0.37776429201689    1.72654323982236
C         2.37902942688152   -1.32237726713644    2.59746091058034
C         0.99115420994152   -1.12692378136674    2.03939585299276
C        -0.10855698454111   -2.07495440096701    2.49848449687149
C         1.19815843734858   -1.62873489222791    0.42873623071724
C         2.32800623483786   -0.90407850541798   -0.41986315843914
C         3.50972980809887   -1.81073943400459   -0.72371283315142
N         4.25618180309594   -1.32258080208412   -1.76501802241529
N         3.93901174185610   -2.85382150145339   -0.07669815233931
C         0.61828417291276    0.43559285874071    2.37797891332513
N        -0.55392656307872    0.98427503432185    2.50250685617602
O         1.72362360990182    1.08725397369979    2.70612612400174
C         2.14239895246057    2.42175311044269    2.28467061824452
O         3.33856330678882    2.34061226962516    1.47100460307925
C         3.43436846173829    1.59496186898460    0.22091579953887
H         1.41621195444341    1.31999071593613   -1.11096622524045
H         1.14494356017634    2.18834462811007    0.29099308437834
H         0.17825642523460    0.73806934280694    0.19036999215640
H         3.72795283434107    0.35716656858262    2.39863319820558
H         3.95476643024529   -1.01274913980660    1.13293576501978
H         2.55498588139322   -1.15497352445774    3.66420477169982
H         2.68705969324804   -2.35282840346217    2.37895794550026
H         0.09463453556937   -3.13958282216907    2.39473437630579
H        -1.03507306981726   -1.94920895937209    1.91172935442542
H        -0.30587062369300   -1.93195041153041    3.56658228163219
H         0.22366803195095   -1.59222348854549   -0.07031768217687
H         1.36982312792183   -2.71470819044372    0.52516465173711
H         1.93222966130231   -0.77069416086203   -1.44142440404635
H         4.01914976542579   -0.60836509776712   -2.42640849595473
H         4.93561322618397   -2.04966409990156   -1.95920173750384
H         3.29571780737571   -3.18863253462210    0.63759076990776
H        -1.35940616576818    0.38435174773275    2.32623044818949
H         2.40383228960118    2.94329645679217    3.21132145764664
H         1.33916536520998    3.05375756738801    1.89376024336931
H         4.45949090551794    1.22290497738674    0.16268303748173
H         3.24815220505905    2.20428977207712   -0.67027321680052
