38
 energy: -53.126059365817 gnorm: 0.150177759081 xtb: 6.4.1 (79825abcba525fcdf90b791dcacef51065a7a4e7)
C         1.22394623413032    1.28087853219215   -0.00147075160228
C         2.55399717892997    0.40860284486674    0.42634755555025
C         3.28961762205179   -0.39226575594504    1.75538386646947
C         2.31434636737578   -1.33733019743967    2.53878762578599
C         0.93641384917138   -1.12252828331090    1.96346301910079
C        -0.21833276999849   -2.02029356242095    2.38709834734797
C         1.17254598580891   -1.60021409608769    0.34947806998777
C         2.33627906924963   -0.84321024113457   -0.42154351369859
C         3.52109819324619   -1.70266927851628   -0.83186414384897
N         3.75953601148758   -1.66040443516639   -2.18137035022583
N         4.14112368410553   -2.67538628771234   -0.23159657186466
C         0.64747156485865    0.43107489995173    2.40838806748063
N        -0.51533362285472    1.01282135760423    2.41800591404836
O         1.71822832107837    1.03247967482484    2.90428153216391
C         2.27967526992413    2.32080973986057    2.50569849114354
O         3.49146995016273    2.15397703576363    1.72906094303075
C         3.54438143688652    1.54960536827324    0.40247494058003
H         1.54933994026830    1.60545322707760   -0.99493376800793
H         1.00159556139690    2.19483141398581    0.57123732601451
H         0.31693379408317    0.69442675004258    0.09817764298743
H         3.63063397937418    0.29028534603907    2.53805689534775
H         4.07052068646227   -0.98540100619731    1.25273069442669
H         2.22953658534988   -1.15190848391055    3.61366122356520
H         2.55040067003261   -2.40815882609045    2.58417640222079
H         0.06378786550356   -3.06538132614023    2.27011940409552
H        -1.05609205531743   -1.67116759911907    1.75877039478656
H        -0.46624304397552   -1.84236647180160    3.43928565836116
H         0.17652764849261   -1.51639141115997   -0.09878598242686
H         1.37880963829160   -2.68384471676192    0.38560540638977
H         1.92550009247538   -0.54321060574052   -1.40097125208557
H         3.65266822729058   -0.76067716771615   -2.60891653499716
H         4.46573838671857   -2.27767897671081   -2.56638311826167
H         3.90365102512270   -2.85264396043183    0.74222097975261
H        -1.21745690199569    0.36490071523644    2.06163467311291
H         2.60754763770900    2.70999421645836    3.47527148261264
H         1.52333750800386    3.00361103313992    2.10674945483990
H         4.58366089185377    1.27970788107833    0.20310855418854
H         3.29180049361433    2.27563184549876   -0.37807824148911
