38
 energy: -53.131069954994 gnorm: 0.144882208025 xtb: 6.4.1 (79825abcba525fcdf90b791dcacef51065a7a4e7)
C         1.14471652491955    1.10164927010160   -0.13824542446390
C         2.47746370273293    0.28144816828364    0.37554833957381
C         3.19919732315778   -0.41566842608467    1.76910297861604
C         2.27398454204348   -1.40163138190960    2.56275318136204
C         0.92048544585147   -1.10233168020837    1.96752534472549
C        -0.13017716441545   -2.01148751364938    2.59076919056868
C         1.03787265400365   -1.61155752762591    0.35018220879046
C         2.28182798359494   -1.00330502155179   -0.42725450772046
C         3.57230441994807   -1.75579939923012   -0.70877186868519
N         4.30667981672922   -1.13000600614126   -1.68287726272046
N         4.04178704170831   -2.81766462505122   -0.12314445166704
C         0.61590366174028    0.46500371985419    2.34938719575913
N        -0.55918835090329    0.98367749880613    2.55131200792050
O         1.65828637713493    1.17874611092977    2.74704047708225
C         2.23720396042974    2.42158209231467    2.24295851991008
O         3.42534440307367    2.23221583602160    1.43555026777346
C         3.51570416832276    1.37324693248954    0.26000669068314
H         1.41699954835214    1.07380402885933   -1.19809690708030
H         1.05680407082780    2.16980542610802    0.11485152583258
H         0.21038033918847    0.55958018790515   -0.03973620728174
H         3.51748525393051    0.37558938820650    2.45273234187856
H         4.10418870755447   -0.90312423218264    1.37204294717078
H         2.31456464093383   -1.04960684112610    3.59781798206418
H         2.64953642537285   -2.43130485138889    2.61922488456172
H         0.07931213077635   -3.07563578005101    2.49491899791999
H        -1.09384359867884   -1.81079184179076    2.09117553551092
H        -0.19083310216249   -1.88606497720949    3.67741804508171
H         0.09984474186677   -1.50848559393639   -0.20614434816544
H         1.24948097252615   -2.69051585396135    0.44597398775690
H         1.94625266458811   -0.81497946361218   -1.46163381380675
H         3.91581512944961   -0.35073187402421   -2.17651907676204
H         5.18973126934720   -1.41958134652772   -2.08827920464508
H         3.38257605637194   -3.15720811849667    0.57419712223274
H        -1.28847230124749    0.34712954108521    2.23079627299840
H         2.69174203523075    2.86185216051299    3.13659940791785
H         1.52601620055165    3.13071313231892    1.80848195516218
H         4.56047410611815    1.06912622424907    0.35306462575745
H         3.29996350244689    1.91106326240713   -0.66971607503694
