38
 energy: -53.123628296247 gnorm: 0.151145702632 xtb: 6.4.1 (79825abcba525fcdf90b791dcacef51065a7a4e7)
C         1.09027019669818    1.09911626154864   -0.08401085403544
C         2.49139731407541    0.30244912549011    0.25524300020586
C         3.23341862567745   -0.44754204663151    1.61015373318176
C         2.41906841320390   -1.38802840489313    2.56427186970491
C         1.02738548225958   -1.12509130424368    2.04473459759773
C         0.00211244441336   -1.99052690174388    2.76496065084138
C         1.06345819617407   -1.56062958400491    0.40220767672351
C         2.23741876673628   -0.99696321028578   -0.50658306556983
C         3.49311898095243   -1.83213972019085   -0.69770190611527
N         4.47465745390255   -1.10736149239092   -1.32306952577049
N         3.68456027961354   -3.10133041371025   -0.48928796390701
C         0.67426401479891    0.42669000624799    2.44773430890021
N        -0.54810574328191    0.84773696531089    2.30928225196680
O         1.65661731681726    1.21123030806123    2.86438347933302
C         2.21534063161559    2.44353311800344    2.31379880772936
O         3.31138743383505    2.29632615318529    1.37760605488249
C         3.43397427043105    1.48072481532679    0.17441776206130
H         1.33353802178041    1.65054444313451   -0.99776480659295
H         0.76385292161703    1.95402138209203    0.52863360347207
H         0.19727595016061    0.49035254266489   -0.17617955530386
H         3.67750742602100    0.41736465214995    2.10962023041029
H         4.03884221729951   -1.06050135652704    1.17443253913956
H         2.46393675228362   -1.02435925213291    3.59512527174713
H         2.88488775286362   -2.37993449305167    2.50435214173266
H         0.27558784771560   -3.03470936476653    2.62220649508541
H        -0.94408795162901   -1.78646740615416    2.23431000608266
H        -0.09414357659481   -1.62368050897739    3.79276131061864
H         0.08753324133183   -1.27060184451545   -0.00211128775165
H         1.17423200010602   -2.65674183311796    0.46833110544763
H         1.92526373432368   -0.85158591431698   -1.55512611026721
H         4.26187872860948   -0.17221510039086   -1.61281434129826
H         5.32352036557713   -1.51981266289619   -1.69361003814586
H         3.01162318770259   -3.58081841575613    0.10517069552066
H        -1.14705706256100    0.11841788308206    1.92310909331298
H         2.53467493161592    3.09344303975726    3.13518745601617
H         1.42237120326475    3.01541006056973    1.82228991840199
H         4.50945776825447    1.29323857312883    0.20404122485993
H         3.31884125186743    2.12141819299907   -0.70673558764828
