38
 energy: -53.122461719620 gnorm: 0.157445845494 xtb: 6.4.1 (79825abcba525fcdf90b791dcacef51065a7a4e7)
C         1.18619829038293    1.15979582645972    0.09357571902855
C         2.59994359871588    0.37591646731676    0.40946534590987
C         3.30065484698183   -0.38676219276270    1.77920637285116
C         2.29420089071857   -1.37720696514559    2.46044925154237
C         0.92970170677030   -1.08393745269882    1.88776150143555
C        -0.10806013100511   -1.95695433076330    2.58042378626111
C         1.08462351190311   -1.51996935525314    0.25229064399833
C         2.32129400075772   -0.83843194091387   -0.47431562391010
C         3.45275253204099   -1.77722758010153   -0.86070088538015
N         4.28035463206088   -1.22124700211450   -1.80185245647564
N         3.78659479376167   -2.93496272692093   -0.37169185593971
C         0.62446688626825    0.42919878513723    2.44667043275608
N        -0.53920374560392    1.00779610717370    2.48830130041839
O         1.65246191765293    1.07936952143140    2.97071457420150
C         2.35404265072308    2.26706374838057    2.49003553788519
O         3.42972917877898    2.30061455846062    1.51987153903890
C         3.59432691440497    1.50894975380136    0.30575887173582
H         1.32399146174376    1.48469403453273   -0.94259644625329
H         0.81341027243507    2.04610287253799    0.63044921012183
H         0.34079814073085    0.48308275519347    0.03124539892945
H         3.72321629746287    0.40896913625621    2.39807526622335
H         4.05264155376834   -1.01862210250481    1.27965829332922
H         2.27290521909093   -1.54593011988588    3.54119258019734
H         2.56693648876667   -2.37819120098114    2.10253642467593
H         0.11423635548064   -3.01471333711347    2.44921893052088
H        -1.07195855247622   -1.83471026200861    2.05651368749573
H        -0.25060273278333   -1.71201217756018    3.63867736527540
H         0.06224859234031   -1.31278670108574   -0.08214066575597
H         1.25874424571681   -2.60979981821449    0.24475844701749
H         2.03402185174216   -0.56065182356808   -1.50306766784778
H         3.76029493844987   -0.67698718491973   -2.46294608948036
H         4.91267687093576   -1.91538517062611   -2.18437733463577
H         3.19688117045391   -3.35844179387627    0.34177677972783
H        -1.31866748832746    0.42303497083822    2.18785264264326
H         2.71668298535561    2.82335448432308    3.36070724530935
H         1.51199748203939    2.79823816537011    2.03590073342022
H         4.61529341043425    1.12202923632447    0.33052427631527
H         3.45954763171637    2.13995693655408   -0.57958813669094
