38
 energy: -53.127692771987 gnorm: 0.147282230598 xtb: 6.4.1 (79825abcba525fcdf90b791dcacef51065a7a4e7)
C         1.05702638162997    1.10617042093184    0.03297178025806
C         2.48391067304040    0.35119435008243    0.35999052836555
C         3.30061490193588   -0.34627397501241    1.69991501061845
C         2.39504256406713   -1.34201479599517    2.50394314087835
C         0.99792235070401   -1.09304611886761    1.99217563140433
C        -0.03307211820330   -1.99402009140116    2.65864802117636
C         1.15800088388199   -1.65113790768586    0.39474083190403
C         2.27006093358875   -0.91496418790928   -0.46733488756826
C         3.50190003953859   -1.77818472201995   -0.68699827182093
N         4.54102603368327   -1.19400557742780   -1.36431490593774
N         3.67226000580358   -3.00741323764620   -0.29853215948512
C         0.59763768364995    0.46207701190085    2.33348631092533
N        -0.63698846769755    0.85719787061717    2.43455602654456
O         1.61360586284199    1.19039547593401    2.77106932074421
C         2.23252568962222    2.39463895278791    2.22277987041373
O         3.37483763914333    2.36599494331278    1.33185435241566
C         3.43839406562443    1.50477556535278    0.15620265416702
H         1.08095096514993    1.39274912144186   -1.02319999685806
H         0.95785582145566    2.07156883605117    0.55346706370136
H         0.11970677347740    0.56067091024891    0.01324124254694
H         3.62080027473108    0.47941129798065    2.34059464542350
H         4.21984080920872   -0.85224526154648    1.36332027182426
H         2.44836049724700   -1.05621240860011    3.55864753112643
H         2.69927947509116   -2.38484227467612    2.34771741561034
H         0.54852753321136   -2.82353966022220    3.05755113533369
H        -0.74223380069516   -2.44025451276369    1.93997555478946
H        -0.59621670954029   -1.45061590185518    3.42532640671722
H         0.24121149961196   -1.62066772698739   -0.20408153277335
H         1.44990684873188   -2.69103143931763    0.62171563332223
H         1.84808214302664   -0.70796954838075   -1.46588632316778
H         4.39097966012265   -0.49641028298574   -2.06757340237945
H         5.18319270724435   -1.84177591548021   -1.80703382835350
H         2.93815416942605   -3.46041075779117    0.24185292962960
H        -1.31378628678602    0.12333834205416    2.22677341878967
H         2.70386058118178    2.73339445300857    3.15128660712719
H         1.62102052826417    3.23605216046526    1.88291228004522
H         4.44037459322874    1.17497419628323   -0.12656841606232
H         3.14356504520870    2.12903437922141   -0.69441573002895
