38
 energy: -53.130434548376 gnorm: 0.146146501778 xtb: 6.4.1 (79825abcba525fcdf90b791dcacef51065a7a4e7)
C         1.08186049821471    1.14433692831379   -0.04146898664587
C         2.47330726875593    0.34966410902602    0.33971325266188
C         3.21375204454030   -0.42901442045636    1.67921568066320
C         2.34966749758819   -1.38922683746221    2.56768193159090
C         0.96616735564228   -1.15656413627372    2.01303636930211
C        -0.14814138843200   -1.98421804979707    2.63929042590682
C         1.09640122680782   -1.63425325788488    0.38707765551153
C         2.17060161951248   -0.88336510593609   -0.50961867276510
C         3.38860222377404   -1.73172111787384   -0.83763671477133
N         4.16603638756257   -1.14950557409882   -1.80532834882171
N         3.88483569279017   -2.81156469635085   -0.30979076765690
C         0.74282057720909    0.42045925329802    2.41083305269541
N        -0.40258055248231    1.02574424337505    2.52184506769251
O         1.77968229370880    1.09861096506781    2.87896346244098
C         2.30862899722144    2.33828365014235    2.31565849827667
O         3.50243673975336    2.12289974734735    1.52327082475959
C         3.47677950862670    1.47281311303704    0.21765823452834
H         1.25397878888617    1.40839231888382   -1.08972878580073
H         0.94809096168190    2.06800754985574    0.54306718301353
H         0.14367310704053    0.61469117170678    0.08425630784552
H         3.76170307709077    0.23741140120577    2.35031293393738
H         3.96985563598057   -1.06756584181618    1.19461411525739
H         2.52339091903698   -1.19742391234891    3.63067720781926
H         2.60271748769338   -2.43998238652397    2.37706659347411
H         0.39631231391484   -2.87820777271269    2.93901881099772
H        -0.92353811632969   -2.19047762560780    1.88117271209755
H        -0.55290692938007   -1.52268971371599    3.54668897967363
H         0.09239597237727   -1.77880939258695   -0.02656033597182
H         1.44906585408100   -2.67989959128686    0.40596182882346
H         1.59032766572779   -0.58059526303445   -1.39823017173685
H         4.03043037223782   -0.16298613715103   -1.91540118915755
H         5.01097724335063   -1.62868424951242   -2.09592641093803
H         3.35279184624250   -3.20797642259084    0.46216859778572
H        -1.17342219760930    0.48709763862490    2.12758410608304
H         2.75167214952015    2.80497131594657    3.20163367749465
H         1.59247491843596    2.97529133810037    1.78767243090709
H         4.44818259070141    1.03920098869587   -0.02942470146755
H         3.14780161266015    2.22965382155400   -0.50285584611867
