38
 energy: -53.131937760566 gnorm: 0.160095371895 xtb: 6.4.1 (79825abcba525fcdf90b791dcacef51065a7a4e7)
C         1.05507970247328    0.97359456527101   -0.00855387213880
C         2.52460227241383    0.29732726481684    0.30143783672368
C         3.25976303545315   -0.32204282954122    1.72438717152881
C         2.36972144861668   -1.24501217503204    2.62659326561657
C         0.98677733171372   -1.10889521184105    2.03941863769847
C        -0.10482370661621   -1.94947750134131    2.68804622069491
C         1.13907822811578   -1.57620019151943    0.41235992664252
C         2.33308849172326   -1.00863467193273   -0.46741998691981
C         3.57461591842821   -1.83954273980375   -0.74854390721088
N         4.56230608686745   -0.99007900378961   -1.17596104915921
N         3.76862329078790   -3.12387855169556   -0.68711254842844
C         0.63074580283848    0.46558284873897    2.33839894814888
N        -0.59409357188899    0.82470844372970    2.58625916250834
O         1.67020922775088    1.20577519791520    2.69301020963563
C         2.23966800022233    2.44904264491477    2.17930968402552
O         3.42177079939710    2.28424030526978    1.35777542652331
C         3.38715154629025    1.52370281344999    0.11347667518515
H         1.11818449447150    0.98999441118988   -1.10123287055657
H         0.83179933660503    2.00796968231820    0.29633664982795
H         0.17141947719650    0.37188549589790    0.17479786941627
H         3.76529037909271    0.44732522425529    2.31367499261450
H         4.04303819080725   -0.88656479974572    1.19328057703862
H         2.29655435405347   -0.94796727004216    3.67699226691471
H         2.59869019524727   -2.31135449877386    2.50435129913278
H         0.21716212842915   -2.97485700946640    2.86242095084621
H        -1.06493890197357   -1.94247752289474    2.14338542729830
H        -0.41928314123191   -1.54950208735857    3.65827847298270
H         0.18462646318629   -1.55195033002477   -0.12471846871483
H         1.34191600932548   -2.64538008032024    0.59625233383132
H         1.83694989111837   -0.88114106827537   -1.44497290930798
H         4.27415614541686   -0.22842342320195   -1.75954995372271
H         5.42242293044052   -1.50372373430565   -1.33201423998111
H         3.02393609059147   -3.69523734290270   -0.29325435399073
H        -1.30423520119752    0.10532920481878    2.45220285244007
H         2.61097812621191    3.01828506151684    3.03787155626007
H         1.46848944691763    3.00128705530653    1.63365915403984
H         4.43545005143524    1.25567843873243   -0.03459958289653
H         3.18804311495350    2.18845465148219   -0.73424713991211
