38
 energy: -53.125742965975 gnorm: 0.159043302927 xtb: 6.4.1 (79825abcba525fcdf90b791dcacef51065a7a4e7)
C         1.10530682208247    1.17736549023729    0.01183040813615
C         2.49960286131023    0.35769338194008    0.32328679201727
C         3.27906300234726   -0.37226769675916    1.66807829731219
C         2.38560338573208   -1.25317907909678    2.60815666211686
C         1.00330965916462   -1.08108010531482    2.02894831957369
C         0.05405540094627   -1.98201673726051    2.80748457759884
C         1.11056612683422   -1.62729547099815    0.42301108840266
C         2.24329546249523   -0.93526752786006   -0.44866855761852
C         3.44084195466514   -1.80199106417299   -0.80293109636982
N         4.37545229035574   -1.12787295466961   -1.54581346422790
N         3.62196745561532   -3.08766254392924   -0.73100365608529
C         0.58296350719110    0.49053613649014    2.24908542712224
N        -0.64502104828698    0.90382457688022    2.35809902103257
O         1.65727297251874    1.09818177512616    2.72944366411948
C         2.27134165996702    2.37468965418165    2.37260650306889
O         3.44093231825183    2.18417082051687    1.53881657292752
C         3.50650303596851    1.48270532420389    0.26149836677990
H         1.16270692794054    1.41170476252128   -1.05587221498444
H         0.92608876950866    2.20027495812586    0.37827459083620
H         0.18729073131653    0.60024007266724    0.03828348076513
H         3.82524237629606    0.38040674940165    2.24246014563544
H         4.06664428186394   -0.95818535467679    1.16738331660650
H         2.53583208363846   -0.92405661083378    3.64064729056014
H         2.70981401488979   -2.29054571562096    2.45579634431665
H        -0.89749679628193   -2.08520224536995    2.28846075263862
H        -0.20521310064175   -1.41661879578971    3.71942239829275
H         0.46588048009560   -2.93552445666868    3.15596531486634
H         0.10396831456081   -1.67092852378617   -0.00696150886462
H         1.32032270251905   -2.69785012024651    0.59040324753886
H         1.84242536827542   -0.79018679034954   -1.46664330891736
H         4.13530716438824   -0.38977828423753   -2.17927395461917
H         5.22560767393853   -1.60116877475753   -1.83078956357237
H         2.92349530738051   -3.63395679646724   -0.23117026353029
H        -1.41526427009148    0.24336567702895    2.25661929307502
H         2.80357784202621    2.74420392097243    3.25534116581886
H         1.54956919572956    3.11694480668948    2.01830924121246
H         4.56311232683069    1.21408316660002    0.32562588172856
H         3.27182429136762    2.14788318055696   -0.57673737416725
