38
 energy: -53.130550335148 gnorm: 0.146273018488 xtb: 6.4.1 (79825abcba525fcdf90b791dcacef51065a7a4e7)
C         1.14357284633084    1.21729540914102    0.05153237783290
C         2.48131859599127    0.32433765519236    0.40648543582821
C         3.30423163553679   -0.52090454687496    1.65438176058125
C         2.35142765608722   -1.43930281766743    2.49505498849416
C         0.96561198448346   -1.13074232851580    1.98501416674506
C        -0.13419811754730   -2.02170158029120    2.54670669674141
C         1.04427524048580   -1.58472048770364    0.34898070454434
C         2.19653665743739   -0.88127808460531   -0.48724072625192
C         3.43990677279335   -1.71330121795925   -0.75668005948189
N         4.38425268771875   -1.09164802375678   -1.53228565318006
N         3.57955021098700   -2.96959606521256   -0.45146839975227
C         0.74392947796431    0.44231615347896    2.39910676262780
N        -0.41883668519011    1.02418328289066    2.39256147958052
O         1.82618080217708    1.03111261694189    2.88507883529126
C         2.31481283017462    2.33680860975186    2.44886536754618
O         3.38923263745881    2.30433543993402    1.47726207978610
C         3.44905109361284    1.47760393803911    0.27691548812586
H         1.37916539437275    1.40507272102477   -1.00081471194207
H         1.00835219849318    2.19246385250421    0.54499577257431
H         0.14386029373995    0.82767479966491   -0.10751997054153
H         3.69354673952630    0.19271212223527    2.38508706360185
H         4.13546608557066   -1.09153790014979    1.20974022212129
H         2.57170967484135   -1.19896747855912    3.53939301520570
H         2.63037180749524   -2.49838605333196    2.42442505525682
H         0.15574996160925   -3.06274916013530    2.41391133075481
H        -1.07926406894400   -1.93780262145548    1.98249319169031
H        -0.15522608357754   -1.84600966265323    3.62786619955023
H         0.10862027374131   -1.36877717099260   -0.17821727603957
H         1.29930881595061   -2.65737246327295    0.39878865193122
H         1.72448120809970   -0.64052783729769   -1.45534239151630
H         4.16475959046303   -0.19568735584367   -1.92318575031230
H         5.07934500052766   -1.74063598099672   -1.88391870322017
H         2.86646304382890   -3.42411255409676    0.11514931347153
H        -1.17720527328289    0.57572102113010    1.87920254631860
H         2.69383877562932    2.75983569930600    3.38504058838643
H         1.48461172768790    2.95916967365425    2.10121958872308
H         4.48136159908743    1.12508578281379    0.22438570657154
H         3.29471178739432    2.08713880955360   -0.62020294074066
