38
 energy: -53.130099782391 gnorm: 0.151071218358 xtb: 6.4.1 (79825abcba525fcdf90b791dcacef51065a7a4e7)
C         1.24711438442729    1.16770768782186   -0.07419568917718
C         2.59624323977270    0.34933074776345    0.39807482057944
C         3.22932692006578   -0.32670279402761    1.84412087550177
C         2.37412886116238   -1.40251103168656    2.59863740965685
C         0.98505716432040   -1.12338294067504    2.08056055418043
C        -0.00389676677042   -2.09276896415597    2.71392459183001
C         1.11845576039067   -1.61735742357783    0.45973249606248
C         2.30303090421299   -0.94563773993853   -0.35719971784003
C         3.48843597266740   -1.81870060971080   -0.73588865813459
N         4.02718475671801   -1.41062926645068   -1.92879832087244
N         3.96174661558075   -2.92836978640601   -0.25056142110475
C         0.58781168537808    0.45011918302094    2.32838287152725
N        -0.56722984812885    0.93596058775193    1.98128844077610
O         1.52741088888847    1.24748332989858    2.81364755605099
C         2.07499026623134    2.47422575134411    2.23993567145530
O         3.32834047673205    2.28796804369516    1.53717917479560
C         3.60183449839568    1.47643219796787    0.35628724275914
H         1.53020133242970    1.60959437269716   -1.03481866407958
H         0.98153739112937    2.11706336202309    0.41665755172872
H         0.37225028871700    0.54686839800111   -0.23450306307076
H         3.59601062926754    0.47922734529974    2.48503031267119
H         4.12252503303775   -0.83668763985005    1.44865680747914
H         2.50336217722101   -1.12652108710705    3.64937784556851
H         2.65937073494840   -2.42464222963969    2.31874346460119
H         0.16455953301266   -3.15337231675892    2.53440423353844
H        -0.99816864532335   -1.91731022506165    2.26764751004808
H        -0.20031896476709   -2.01201450355890    3.78868629653869
H         0.18427402637856   -1.39362507029255   -0.06682972243243
H         1.38572914742617   -2.68818424099510    0.45945225522405
H         1.89757782581053   -0.62589903578812   -1.33259339290681
H         4.02725440301272   -0.41473005517115   -2.03793302695119
H         4.91213322360549   -1.88701361761773   -2.06262155506696
H         3.58708809600799   -3.17604665038711    0.66290524084582
H        -1.22750392141022    0.18861437771368    1.76847277060551
H         2.47464601589198    2.97509434255654    3.12787855766625
H         1.35695816537143    3.12167146591897    1.72742352891588
H         4.65782118832833    1.20860430540544    0.43279692248104
H         3.47996927923752    2.09991208424732   -0.53623533603103
