38
 energy: -53.131032171688 gnorm: 0.155537212178 xtb: 6.4.1 (79825abcba525fcdf90b791dcacef51065a7a4e7)
C         1.09983884665703    1.01983592353289    0.02358295115897
C         2.55257621809421    0.32230632025892    0.36407593731371
C         3.25692910606558   -0.48010819873853    1.70902330008170
C         2.35830695532465   -1.37786541254434    2.62800778201014
C         0.97931018546530   -1.13508429899171    2.06652624687663
C        -0.20671466986296   -1.92795529610807    2.59905770834804
C         1.11646402584295   -1.61073826890721    0.44053988800857
C         2.24089509197203   -0.93115033386822   -0.45143477618700
C         3.45123291092202   -1.74111952244806   -0.88716574842300
N         4.11256197142460   -1.16792822244111   -1.94258107291537
N         3.84804492688260   -2.91509817537538   -0.49315370609125
C         0.72978653209306    0.44481488749805    2.43637120607005
N        -0.43892698988971    1.01451184218060    2.42253540752295
O         1.79635926577286    1.06707775383437    2.91525489090976
C         2.31123923469256    2.31596686477052    2.35932317810093
O         3.47823695990643    2.34093701370915    1.50087215152598
C         3.47763701101418    1.51530711772115    0.29827909977430
H         1.23736907646794    1.34091213611048   -1.01381478407293
H         0.84963906908793    1.90572407708567    0.62802193562961
H         0.22307623458055    0.38495130178550    0.09240079517831
H         3.81023261063887    0.30869961865566    2.22514605071812
H         4.02558582508981   -1.11620666968288    1.24123615335778
H         2.53447597334493   -1.00716010771312    3.64214248970729
H         2.67232637305090   -2.42841751248142    2.58123372992739
H         0.15536625518722   -2.64875397230096    3.33037927329087
H        -0.74087390154514   -2.32373460052393    1.71783229659182
H        -0.84945319725193   -1.32507221134661    3.24993009157830
H         0.15671785181029   -1.60450091878391   -0.08753945880771
H         1.33008207670301   -2.68622850465193    0.56621122555657
H         1.67536231424569   -0.79311658869743   -1.38905793832928
H         3.86514355078081   -0.23298063879456   -2.20408204073947
H         5.03942223223095   -1.50862547830693   -2.17245042722868
H         3.23229315087900   -3.23339419091181    0.25228010924451
H        -1.19977461253523    0.39124498178580    2.15341084647315
H         2.71529825992542    2.71629395951433    3.29501070768882
H         1.55662623968483    2.97962898127099    1.92626825312189
H         4.53148992220835    1.24986510699617    0.19044606397872
H         3.32718778160461    2.18991448528790   -0.55168840841941
