38
 energy: -53.128391594530 gnorm: 0.135268669115 xtb: 6.4.1 (79825abcba525fcdf90b791dcacef51065a7a4e7)
C         1.03281700075723    1.11500408255428   -0.05422090236959
C         2.47187204484053    0.38689187074819    0.28029683762706
C         3.30648273005340   -0.34804736632357    1.58879018139027
C         2.42367489211200   -1.36598044020090    2.39034171580723
C         0.98213499672523   -1.11594785457341    2.02253370491385
C        -0.05936842801243   -2.00837375400410    2.68414974290641
C         1.11898601557742   -1.56536328464430    0.38907506163701
C         2.24577662465976   -0.90016252510940   -0.51073310764244
C         3.49054304806484   -1.76510706133809   -0.62587133256570
N         4.60878476607303   -1.18304821555459   -1.16489721936608
N         3.56945265164504   -3.04922480529939   -0.43680495259920
C         0.61588609885872    0.43459494492368    2.41852307064165
N        -0.52487822710384    1.05467529547967    2.48776510490418
O         1.71341904793031    1.07323824782893    2.79491944158457
C         2.22426813785272    2.32474838235227    2.24116763472656
O         3.35552278122237    2.32363508510936    1.33579087865779
C         3.43780969636853    1.53643006830720    0.11046141427072
H         1.07071442291997    1.26879169821063   -1.13732372231438
H         0.79845286281204    2.15922851059096    0.20541930176105
H         0.22119120565425    0.42197315382588    0.13942508621937
H         3.71099173713861    0.48397922550621    2.17089795144721
H         4.16722114944783   -0.82441779177441    1.09232282932981
H         2.60004041269044   -1.32419682601267    3.46926548131899
H         2.67165921897869   -2.39253702779420    2.09177667990825
H         0.12488108227330   -3.07020885783061    2.52909204160902
H        -1.05001739543138   -1.92033017789276    2.20520452682912
H        -0.03119727797390   -1.83436866116344    3.76541950890904
H         0.09440050915692   -1.37318287403601    0.05245854080150
H         1.30524028547963   -2.64933323163891    0.48085589340228
H         1.81363155647222   -0.83264907647919   -1.52400031826766
H         4.89868607251928   -0.25098646339514   -0.93919000092020
H         5.30840341197934   -1.91688192932824   -1.16741334991175
H         2.64778926596106   -3.46635232485276   -0.32421978185747
H        -1.30570646418160    0.49457456339689    2.14663001714994
H         2.63765074387746    2.81676337389218    3.12777504564712
H         1.34663509508194    2.83259339173090    1.82973302005082
H         4.48633381446973    1.23420554400130    0.15463064223551
H         3.22214162525630    2.18464112147514   -0.74597572432639
