38
 energy: -53.131832705599 gnorm: 0.149704475336 xtb: 6.4.1 (79825abcba525fcdf90b791dcacef51065a7a4e7)
C         1.14334006953378    1.15259847023364    0.02539188277015
C         2.55610964157017    0.37881934601259    0.36930598858996
C         3.29452704921156   -0.37510690993735    1.72400167775767
C         2.38520910490652   -1.29407668077057    2.61093894585033
C         1.01089535157062   -1.09600022024769    2.02113920426779
C        -0.05033101091994   -2.00364744943043    2.62848119097463
C         1.16652720461400   -1.57323120852219    0.39727994726181
C         2.27101554746097   -0.85306541248127   -0.48774579346166
C         3.36544641821999   -1.81306935318209   -0.92528748237948
N         4.55877092818642   -1.24171268667703   -1.28491794821744
N         3.33646572574492   -3.10799666717219   -1.04041578840834
C         0.66181331162335    0.46440754966406    2.39315825233991
N        -0.53691232408954    0.92467867772927    2.59771805833164
O         1.77464527080205    1.05142949767497    2.80683488779786
C         2.25054171782457    2.36500812148510    2.38031494622444
O         3.42721604217708    2.26121956508699    1.54120180957132
C         3.53080799353840    1.53027283678479    0.28307592158812
H         1.25277213861512    1.23896020616259   -1.06031748737451
H         0.87742918118218    2.14136021598578    0.43083712452468
H         0.29052393046619    0.49397136525987    0.14965786405640
H         3.90504088430301    0.35747709216339    2.25817278488963
H         3.95569745144846   -1.09894388698190    1.22081883861195
H         2.29764482285279   -0.93588422423604    3.64096701723833
H         2.69558711061335   -2.34065345378048    2.49780943090930
H         0.14741734568504   -3.06954156948230    2.52723952547539
H        -0.98574204386324   -1.77777534526779    2.08763595483910
H        -0.15411162417875   -1.77985155370583    3.69588958562765
H         0.13676537426450   -1.48385665737145    0.03448220186436
H         1.28985124731911   -2.66973177677851    0.42142313484037
H         1.72835540800884   -0.60883700195242   -1.41720278862195
H         4.70910331115222   -0.25338747705737   -1.21904634975083
H         5.20800412204278   -1.63142222399329   -1.95916361216555
H         2.42239925459299   -3.51330958507677   -0.84979024250037
H        -1.29017705768344    0.48967939463181    2.06560286115393
H         2.59268479861219    2.89821358677964    3.27343681705352
H         1.44635945029265    2.93811198495233    1.90886229875564
H         4.56514846672996    1.17993523979380    0.27323952706534
H         3.26399758514672    2.20702552860016   -0.53606561118429
