38
 energy: -53.121083276333 gnorm: 0.157266672489 xtb: 6.4.1 (79825abcba525fcdf90b791dcacef51065a7a4e7)
C         1.28242496213176    1.31517548301712   -0.02133619100166
C         2.56015682629445    0.35431392656131    0.37499103488976
C         3.37866595847955   -0.44411015391154    1.65617301435173
C         2.45596014267492   -1.47947854584300    2.38736965786483
C         1.01626458892102   -1.21053587200358    2.02573057897691
C         0.05683403091116   -2.09235160277380    2.81362851445996
C         0.90929375739858   -1.57408522557125    0.36884232966226
C         2.04662617870923   -0.82542115305719   -0.44833630064306
C         3.24493725318451   -1.70177937581423   -0.77525542081014
N         4.34960473422509   -1.06885328067532   -1.28409748000638
N         3.41990793246719   -2.96832192502332   -0.53821868352571
C         0.70688076548300    0.37095026069416    2.33927812491347
N        -0.47328407607902    0.90299907223530    2.21773655043512
O         1.76098623437661    1.03662592076021    2.78633027632383
C         2.23117386997829    2.35499731010691    2.36835189521195
O         3.35045381079947    2.35785701514218    1.44821624974915
C         3.55262016013635    1.49078350777628    0.29270447840063
H         1.43678337161409    1.47421637597578   -1.09328676749153
H         1.21368627847641    2.36168208844693    0.31458516119264
H         0.32203616062763    0.86447115961834    0.20459748779174
H         3.79822543898877    0.33037956579180    2.30338298637427
H         4.23398908677697   -0.83636615219689    1.08273007214616
H         2.47517926221242   -1.32668342751527    3.47051851107251
H         2.85855382361412   -2.47737273795165    2.17154281008569
H         0.35159318918803   -3.13932089525204    2.86319557250142
H        -0.92334940579047   -2.13755624359028    2.30793835541342
H        -0.06062667720212   -1.64377758385944    3.80620094159561
H        -0.13164530123290   -1.36725833001627    0.09738709030655
H         1.13355569655476   -2.65419885913938    0.33469068448904
H         1.56551721243025   -0.60803226980032   -1.41750815573598
H         4.29443204961900   -0.26757844771468   -1.88296327183217
H         5.08731638325815   -1.69111193094988   -1.59483882961407
H         2.58165872613913   -3.42948325236265   -0.19065188689052
H        -1.06997892683971    0.12510091110126    1.93736460755565
H         2.66861055667036    2.74025939904906    3.29531408235181
H         1.48868941139968    3.01440383407726    1.90865133122645
H         4.57547943014039    1.11297007374221    0.35360870467543
H         3.46673453616784    1.96521735738127   -0.69101856901635
