38
 energy: -53.124512391888 gnorm: 0.153165103021 xtb: 6.4.1 (79825abcba525fcdf90b791dcacef51065a7a4e7)
C         1.17088117605134    1.09309199407660   -0.01387366404074
C         2.56646900666668    0.29514567638880    0.34465835721654
C         3.23819768627025   -0.40914577239701    1.75944442945156
C         2.32835957106238   -1.29747231229075    2.67655557147440
C         0.94732659231475   -1.13759540709729    2.09087341622374
C        -0.08883295552352   -2.09517216828446    2.66385621367399
C         1.08993039112164   -1.62098490839046    0.46763951599599
C         2.20308923145844   -0.95759750014078   -0.45029205845707
C         3.41245370459233   -1.78102270073105   -0.86289087160486
N         4.09292355115070   -1.07119166197387   -1.81835234114931
N         3.81813440070022   -2.97501114992012   -0.54548587616717
C         0.65093978317443    0.43920765721560    2.43868911725637
N        -0.45337131136388    1.08700653968318    2.21177290282703
O         1.72645699286170    1.10266861970124    2.83517410957169
C         2.31885765210512    2.34479169241055    2.34519737825891
O         3.47545296030705    2.21946523933592    1.48146944306777
C         3.54128690706081    1.44556026934698    0.24670948701172
H         1.34654530673005    1.58951049749177   -0.97351388044469
H         0.95373037664851    1.87955213735128    0.72576828895816
H         0.33351728776470    0.40510629315088    0.03112036705797
H         3.68381311196774    0.34411607752306    2.41424876678389
H         3.95651291916355   -1.05797598329837    1.23283088396459
H         2.39568817637212   -1.02948023838707    3.73512737614920
H         2.74056076732902   -2.31046111441648    2.58490627140534
H        -0.20638827165682   -3.08558409480788    2.22710741102424
H        -1.06982077101203   -1.58902377586094    2.66234519545491
H         0.17368576338362   -2.15490691937379    3.72580318954296
H         0.12963351835406   -1.58482899492186   -0.05823318948075
H         1.43776171708662   -2.66466613472726    0.55622893526141
H         1.77091312795850   -0.82463751650682   -1.45705087559945
H         3.91971543961727   -0.11094458287426   -2.04561896443404
H         4.94914405495218   -1.53843216952042   -2.09504215203999
H         3.17687314901118   -3.29591867921425    0.17696588625346
H        -1.21611079030697    0.48770546673055    1.89737597527160
H         2.70838185430001    2.79358392331413    3.26492182522139
H         1.64087032135269    3.10561728251410    1.94657180396575
H         4.60728332332392    1.24890742095145    0.11377080645142
H         3.19569801286520    2.19898387503809   -0.46959774009401
