38
 energy: -53.128257938371 gnorm: 0.154974839003 xtb: 6.4.1 (79825abcba525fcdf90b791dcacef51065a7a4e7)
C         1.14560439175085    1.20694015050730    0.04782749594958
C         2.47503356919653    0.29622246646398    0.38862103815085
C         3.25127744423319   -0.41903525221221    1.74313840673027
C         2.30677884648608   -1.31823059158866    2.61342135401469
C         0.93357618922522   -1.11738182984312    2.02197352981157
C        -0.10523657984585   -1.98877662895687    2.71510286450089
C         1.10022179070012   -1.65944111914089    0.41969686641972
C         2.23995873639272   -0.96483900022841   -0.44072825210576
C         3.50116332292530   -1.71808912341836   -0.83163290914589
N         4.09604557534768   -1.14045558881984   -1.92353973549978
N         3.98524283326930   -2.88388916197065   -0.51936949344622
C         0.64403666888849    0.48095529907815    2.25991070889993
N        -0.52839333576727    1.02471138888483    2.40265019184684
O         1.68931213846230    1.07588695322036    2.81450389217343
C         2.25758920277885    2.33384586718626    2.33650176554475
O         3.44881690592809    2.15944700258739    1.53027166319203
C         3.51902156394303    1.38474214541516    0.29625430097748
H         1.27031064694717    1.38255858630976   -1.02539432249114
H         1.05710441324479    2.20049546769270    0.51447491628521
H         0.19282576890328    0.68880005953157    0.06428334784633
H         3.81845562592865    0.29024911625346    2.35138985361804
H         4.08726989144070   -0.90121652968764    1.21125770942861
H         2.30058242336841   -1.00048052055368    3.66028507736702
H         2.61711660210784   -2.37080225154310    2.59795836590658
H         0.39200339847792   -2.93553144329956    2.91977892073079
H        -1.06605927923810   -2.16585518503138    2.20130476707704
H        -0.35036864842126   -1.46572807556199    3.64598748448471
H         0.12619199981514   -1.50568825818534   -0.05742518973045
H         1.23918585148704   -2.75408124471378    0.44330147948741
H         1.88176835073018   -0.72722857310340   -1.45722162295374
H         4.03376125593994   -0.14327999474101   -1.99761481046384
H         4.92800249607520   -1.63537733495140   -2.22501052409017
H         3.43246205011880   -3.40536178990648    0.15785563648089
H        -1.33479979742471    0.46968094239321    2.11729333551825
H         2.74433888654307    2.53308566553710    3.29692609146203
H         1.52485922827672    3.06023283107695    1.97195613696725
H         4.51386930943830    0.94368733812182    0.20437384514231
H         3.47094886214716    2.14199894207132   -0.49395200290983
