38
 energy: -53.124171445768 gnorm: 0.156685331711 xtb: 6.4.1 (79825abcba525fcdf90b791dcacef51065a7a4e7)
C         1.22930377410297    1.22382928606923    0.06406336951102
C         2.56965019062558    0.34449969455783    0.44245454779988
C         3.38090696234060   -0.40849859764307    1.75536030109384
C         2.32275553245991   -1.28570154387218    2.50958362531782
C         0.93991476422948   -1.06478046580768    1.94852963011800
C         0.00940494202869   -2.10135241258870    2.56380129452019
C         1.13184152620455   -1.47329642929683    0.30988129069962
C         2.34159682665581   -0.83702031376934   -0.49848043287225
C         3.43062896443915   -1.83387667753315   -0.86057940906807
N         4.08242264696433   -1.47319802622223   -2.01161452639465
N         3.73804924989601   -2.98748691373933   -0.34520830921893
C         0.54036468729078    0.46603868821274    2.38680039348926
N        -0.63769967134103    0.96749183203731    2.61339796682419
O         1.63554595771029    1.06485059326546    2.82965517046168
C         2.31248414835420    2.30774900270699    2.46793194880335
O         3.28419984269935    2.42476439316829    1.39951191178658
C         3.51977111169305    1.50934997112190    0.28846835904865
H         1.30137759543306    1.37819849058741   -1.01722016272559
H         1.17448626526142    2.18361596427327    0.60123077155321
H         0.34968033534458    0.59324533206288    0.13585160880381
H         3.76651934035403    0.42048043782049    2.35439460298389
H         4.32394893700957   -0.81828096854693    1.35909085654623
H         2.30892662023121   -1.02898098989560    3.57298876118231
H         2.63782394193748   -2.33698039754471    2.50895085577792
H         0.40526390443292   -3.11509433609900    2.53052135238920
H        -0.93495765434079   -2.27040955800905    2.01779347786445
H        -0.27082747413575   -1.75707589517646    3.56537963165308
H         0.17052912935678   -1.33392430332199   -0.19655066692596
H         1.24703792334906   -2.57067639386593    0.33421683191476
H         1.95117078873983   -0.54043685366206   -1.48722894537032
H         4.08278650489369   -0.49038911227925   -2.20606794541411
H         4.92128632217106   -2.00638960073411   -2.21161195911549
H         3.19764125370419   -3.21346080485805    0.48727543091857
H        -1.36360820887020    0.30986446466140    2.32991647271511
H         2.95839924874632    2.52613113018038    3.32475139084963
H         1.52603874949132    3.03872209141072    2.25672889801192
H         4.57968653642500    1.27008698311661    0.39813111886496
H         3.33614158031406    2.18214275109414   -0.55640141066768
