38
 energy: -53.129963591635 gnorm: 0.159697559296 xtb: 6.4.1 (79825abcba525fcdf90b791dcacef51065a7a4e7)
C         1.13108976933859    1.05572895664480   -0.02971422252199
C         2.57389466977206    0.32960973866750    0.29276651370019
C         3.30680358176557   -0.41115616734835    1.65767525821514
C         2.40012889373412   -1.38938915456570    2.48170409313632
C         1.00660837573765   -1.09327109660375    1.98546727202525
C        -0.05585920288696   -1.88575159318969    2.73515152654275
C         1.11799535606293   -1.63781961695296    0.37924517363953
C         2.22476572746462   -0.92362907240312   -0.50776951269002
C         3.43147273432583   -1.78410900403030   -0.84579575616695
N         4.48572448148296   -1.25140726475734   -1.54191932433776
N         3.53330023733964   -3.04840502144460   -0.55923351897227
C         0.72541038427420    0.48381461757350    2.34443411617854
N        -0.44642015740248    1.02430088219018    2.50357293345651
O         1.76663940919994    1.07006467477547    2.91563555748448
C         2.18077047169074    2.36178181791930    2.37355827540968
O         3.28968860426384    2.35891403476692    1.44096096994238
C         3.38841390663363    1.59894976982444    0.19975075997748
H         1.18537210791803    1.33403125756629   -1.08697474798224
H         1.06223970284530    1.95736920300762    0.59881483904651
H         0.21090859083172    0.52745259819395    0.19549179653458
H         3.79815067363267    0.33581677644658    2.28644762820627
H         4.08063851146199   -1.00104046993438    1.14047582679887
H         2.53683855842475   -1.22992209264852    3.55539300914875
H         2.70792802523153   -2.43044516013659    2.32071395651056
H        -0.62243576392620   -2.53390739372434    2.06854097728506
H        -0.76615062357929   -1.30893192590138    3.35263896837083
H         0.46095292022125   -2.54853130354408    3.43789186569514
H         0.14065410103389   -1.59563215562513   -0.11374948221240
H         1.42477762757754   -2.65754821606095    0.66932006147192
H         1.77131405754161   -0.76298654364505   -1.50104359829267
H         4.46538739416277   -0.27356234459708   -1.75901684406413
H         5.15649762223151   -1.89656364580794   -1.94418928592764
H         2.68870113854964   -3.47677503127050   -0.18602355920193
H        -1.16851263571773    0.34875884591504    2.25456664288879
H         2.58411354425445    2.90116590233010    3.23693293896583
H         1.32130188638628    2.93718272042059    2.01627364221466
H         4.45183085996732    1.38625483773465    0.07091503091037
H         3.15965212397078    2.31541253409753   -0.59681938557855
