38
 energy: -53.129938496419 gnorm: 0.144549266946 xtb: 6.4.1 (79825abcba525fcdf90b791dcacef51065a7a4e7)
C         1.15116048300776    1.25276249026835    0.03239115156130
C         2.47273883351567    0.33822997347562    0.39293217513391
C         3.24814931976939   -0.43646196853392    1.71484610877435
C         2.37055921248354   -1.37538932228552    2.61277333421517
C         0.97452943608123   -1.20113990474908    2.06818697932717
C        -0.18134684432235   -1.95626991204915    2.71054035070497
C         1.03636151730937   -1.61079610417616    0.41977921413174
C         2.22990753596656   -0.94926656674626   -0.39239711402135
C         3.45877733962329   -1.71916727290789   -0.84842466129765
N         4.11120644392772   -1.03580702795496   -1.84198439631488
N         3.94663959454040   -2.85981886602794   -0.45876390616336
C         0.63600790630059    0.37491381698485    2.37897095658884
N        -0.55320898606968    0.90043207862083    2.36376877291580
O         1.70243892176410    1.08284888429475    2.71907520896023
C         2.34193603021511    2.31629626294675    2.26792503125479
O         3.57225450410384    2.07540269717955    1.54147329376424
C         3.55104688739821    1.38779379139731    0.25514542094097
H         1.47721273663924    1.68878192229394   -0.91722747911384
H         0.77187850609681    2.02917054553941    0.71509163085501
H         0.30774713159530    0.63265642249067   -0.25159730334379
H         3.74899439078813    0.21989596932260    2.43115170491979
H         4.05654823605474   -0.98550157808960    1.20560556287338
H         2.50820796879117   -1.14225388109934    3.67278646713493
H         2.65618723402881   -2.42983185205845    2.50778135655529
H         0.02556672670484   -3.01154963797669    2.88099865431033
H        -1.07588777705251   -2.00721383358805    2.06577154979827
H        -0.49814068053081   -1.38478410139208    3.58989314073273
H         0.07864796718917   -1.23095244319777    0.04759244207969
H         1.05940206822013   -2.71379754395971    0.45079793063537
H         1.73082983533426   -0.67276053437769   -1.33711067858770
H         3.91974676732015   -0.05693952627814   -1.93625646616016
H         5.02268572667569   -1.41941494116413   -2.06566938750141
H         3.51895124751875   -3.37258583708007    0.30953738671347
H        -1.26636076664025    0.22816047045594    2.08226541223905
H         2.70031092531792    2.69531572607860    3.23070658099559
H         1.72655412019843    3.02547369173435    1.70596664388993
H         4.56574032520503    1.02867719873759    0.07041345138932
H         3.40529001427473    2.15886105758359   -0.50930539870666
