38
 energy: -53.125933121252 gnorm: 0.150483531206 xtb: 6.4.1 (79825abcba525fcdf90b791dcacef51065a7a4e7)
C         1.21812511406417    1.19654589763063   -0.04973502335730
C         2.57792436428772    0.35729279442808    0.34967596076159
C         3.32659158506352   -0.46699555846152    1.65692941184201
C         2.37302337347683   -1.36020464602401    2.52347858067084
C         0.96335817990752   -1.13122638845113    2.03742377312772
C         0.01869940199810   -2.15932216129557    2.64531192169952
C         1.01671017626924   -1.49380143537048    0.37773030157992
C         2.21557332948905   -0.88267738703429   -0.46551245642705
C         3.38671307391134   -1.79807636444359   -0.78379794903882
N         4.11623525416118   -1.20582546895382   -1.78221779540320
N         3.73474152192289   -2.99067174851694   -0.39970992874695
C         0.61415742145509    0.41528018609714    2.46345780891958
N        -0.54515239636658    1.00133726084186    2.51980648258678
O         1.66607068911829    1.08702420403902    2.90657911100868
C         2.24863789643229    2.31488557822321    2.37098846464685
O         3.38232501587420    2.32937788607418    1.46877516120231
C         3.61903224848072    1.45224501506835    0.32750272935052
H         1.34405169609374    1.21320945839637   -1.13696240740275
H         1.15951853654279    2.24149682640222    0.29288293164969
H         0.21284975511456    0.80315465309431    0.05605646127196
H         3.77192149605476    0.30223243202331    2.29310140815227
H         4.09562293842415   -1.06303052187947    1.13961680368547
H         2.57575098974589   -1.02112258477298    3.54370013722751
H         2.52577029185122   -2.44552448038475    2.46686618225448
H         0.06662392414842   -3.11893698924149    2.13313306988426
H        -0.98355264529454   -1.73917452735015    2.45168245172347
H         0.32698510814786   -2.20873792395519    3.69542320215817
H         0.04167466776259   -1.30431649919745   -0.08424442266271
H         1.05222026434010   -2.59676438315266    0.35992655070380
H         1.88487499948905   -0.48070299403228   -1.43868923706562
H         3.95707404440356   -0.27552624438081   -2.11827832590941
H         4.88173743297167   -1.74590686415721   -2.16990709094495
H         3.18763298941232   -3.34296467408818    0.38303915184131
H        -1.32283449471913    0.49450611182107    2.09777396532739
H         2.76240898499774    2.86882158458765    3.16359857798402
H         1.41611971558704    2.94718833817105    2.04767524032409
H         4.68871762884319    1.23600092016175    0.36879519449250
H         3.52934868644368    2.11577765531155   -0.53959365664844
