38
 energy: -53.129193712974 gnorm: 0.146582197683 xtb: 6.4.1 (79825abcba525fcdf90b791dcacef51065a7a4e7)
C         1.09503401771899    1.26940478588994    0.01042014541331
C         2.49887827592914    0.45458033067205    0.29008297577458
C         3.23198386243319   -0.35293865490213    1.61648214502201
C         2.40067191274179   -1.36937728603632    2.47310062631545
C         0.98369436378681   -1.20285747216110    1.98291486763027
C        -0.08453067650384   -2.10148212056930    2.59140329069213
C         1.07170849222082   -1.52221285613797    0.31583502018735
C         2.22698645602029   -0.81567429155274   -0.51358641711484
C         3.36615530232469   -1.77288099728039   -0.82484017455292
N         4.40538626015278   -1.21472213889678   -1.52359880190525
N         3.53844813487314   -3.00881829531236   -0.45918277122443
C         0.69833126970142    0.34853069186263    2.43776816004246
N        -0.49000953576497    0.76869739333354    2.75705400189825
O         1.80665384130698    1.00924639157563    2.73642167966999
C         2.25886188099819    2.31596040755032    2.26536770706408
O         3.43773272229701    2.36599184002098    1.42441243278588
C         3.53186726765579    1.55490183175197    0.21562508757743
H         0.79676426825462    1.01224865255812   -1.01090469774739
H         1.29819223073577    2.35166129863436    0.02427008373393
H         0.32739766848271    0.95556292399540    0.70953728980552
H         3.79009181838783    0.35853783313188    2.23053584858218
H         4.01661429210771   -0.89166047223515    1.06113258983969
H         2.42041509125305   -1.06643608692165    3.52417816789621
H         2.86470896165021   -2.36233292002393    2.41684715276313
H         0.03318890072282   -3.15157902382385    2.32887109185825
H        -1.06563975627227   -1.76263708259005    2.21572445564204
H        -0.05617015500603   -1.94626542661247    3.67552466524635
H         0.10822848401285   -1.22834216749955   -0.11470619235752
H         1.04406192007231   -2.62369633055236    0.25199907388204
H         1.87275567602464   -0.58975945464691   -1.53412592539229
H         4.76000820113913   -0.27775159587772   -1.51617627876241
H         5.17382445497826   -1.86604660521015   -1.40843076824816
H         2.75908096611040   -3.29122197806549    0.13155334210817
H        -1.18839102172710    0.04003757078182    2.61180633338362
H         2.62438571565207    2.94170932885545    3.08626188090223
H         1.36190252565317    2.83121724046585    1.90843765342354
H         4.58529311979462    1.27015892101439    0.17193477086689
H         3.24313314306093    2.16325181170980   -0.64850323577731
