38
 energy: -53.129660200523 gnorm: 0.153943819877 xtb: 6.4.1 (79825abcba525fcdf90b791dcacef51065a7a4e7)
C         1.15603726937983    1.23073326886050   -0.07501009927664
C         2.52867827251066    0.42412315560483    0.34708670859867
C         3.29552134381710   -0.40655992280709    1.63967435265750
C         2.43488846836034   -1.44823012687962    2.43481994946399
C         1.01277217375322   -1.14992190818695    2.02931562631666
C         0.00756564431325   -2.04624082910827    2.73999233744208
C         1.05156160070551   -1.48039138892786    0.36252983327290
C         2.30353964597093   -0.88306746018928   -0.41048953701223
C         3.42257592350698   -1.85177770246180   -0.75717026104236
N         4.39592411653440   -1.23960060006410   -1.50392216751623
N         3.47595299408605   -3.14538305548358   -0.63606187018573
C         0.65823743014551    0.39691545830617    2.44970605602153
N        -0.45839777118878    1.05447082537712    2.34300958744573
O         1.65946687097753    1.07911507214995    2.98474004924265
C         2.26643044986640    2.29846666434948    2.45685523076761
O         3.34456547686901    2.30675490135385    1.48886683102487
C         3.47467562733762    1.59575096407986    0.22180727784993
H         1.31189963451854    1.42843100884758   -1.14028991596415
H         1.01967830535833    2.19450397524864    0.44005931411064
H         0.23210667597124    0.69111073186334    0.10299787351013
H         3.73903254262530    0.37734302356140    2.25897979297680
H         4.17721801777095   -0.80059938835368    1.10899260901450
H         2.55770563575502   -1.35944777585152    3.51831466488078
H         2.69980170436676   -2.46396682301325    2.11457679681777
H         0.33117830056323   -3.08357982755574    2.80845556324531
H        -0.96860652658034   -2.01732098623763    2.22542736737304
H        -0.13081912032407   -1.65486217044059    3.75384050095634
H         0.09958403765467   -1.09138831214782   -0.01487548239132
H         1.02801821109314   -2.58193930490109    0.29816284838094
H         1.85156232694068   -0.75335295715960   -1.40894259753386
H         4.14730351689976   -0.38429911538723   -1.96258630231871
H         5.24387126339052   -1.66203548095442   -1.86519615063704
H         2.71864688071616   -3.57849683506119   -0.11162495416953
H        -1.11061623431880    0.34321641793408    2.01360562656935
H         2.69580269534436    2.73559342380212    3.36437729718685
H         1.52796231424531    2.98575793176285    2.03292094560701
H         4.49225862253475    1.19937440611828    0.21161528796251
H         3.20949812463861    2.24352620277372   -0.62095187120356
