38
 energy: -53.128716702476 gnorm: 0.148003358541 xtb: 6.4.1 (79825abcba525fcdf90b791dcacef51065a7a4e7)
C         1.27593421356088    1.22041169536655   -0.08481335335734
C         2.61194568880144    0.37722403188843    0.38105872964512
C         3.28468658211260   -0.32780654122985    1.79499545186740
C         2.31009438583622   -1.22463366206034    2.63397902876633
C         0.94511957198812   -1.09638861444583    2.00450840640290
C        -0.11887153007035   -2.03672427238585    2.55458198764524
C         1.24405102654175   -1.54626612891594    0.39294402697371
C         2.41865480927299   -0.88964008654611   -0.45023567618005
C         3.56490973668625   -1.80946804025069   -0.83862386813732
N         4.10634832860613   -1.53042559822733   -2.06695015746520
N         4.17193110235244   -2.71409359618745   -0.12861766129651
C         0.47466137941253    0.43272788158801    2.37274833674626
N        -0.75341269980481    0.85922184610266    2.34878376289474
O         1.51936715226888    1.10986724422665    2.82462242691598
C         2.17086918378202    2.33908241208762    2.37913321939822
O         3.39670029449876    2.28958183867010    1.60820316492415
C         3.53317617001244    1.57442496943361    0.34415405864340
H         1.29088239414693    1.26092543621491   -1.17858377911394
H         1.18115137733684    2.20045088553655    0.40842455825452
H         0.29677512440109    0.81951743782876    0.15405550219167
H         3.72373809061381    0.43705176018980    2.44072820489064
H         4.08046786766391   -0.93827191156611    1.33854894730127
H         2.24789800009128   -0.92937961630372    3.68558913621073
H         2.61701718959549   -2.27199202567787    2.51867687142022
H         0.24119712807524   -3.06418178848761    2.54169100889749
H        -1.00916484593234   -1.97926223164987    1.90450391537446
H        -0.28246428481339   -1.69372494217848    3.58210550073943
H         0.29998762775626   -1.60590292976759   -0.15951156260165
H         1.49755634956388   -2.61543619284540    0.49646040892365
H         1.95537430784831   -0.68309674639007   -1.43040345694562
H         3.48463456974479   -1.47004608842572   -2.85024571814329
H         4.79766938451243   -2.26662939006091   -2.15674810916185
H         3.86690465585862   -2.89423694588530    0.82565767074312
H        -1.53933017768791    0.24078471719051    2.14966585220901
H         2.48421403956829    2.74360566461153    3.34723061617749
H         1.43300776289721    3.01900827089537    1.94245702770813
H         4.59711680464056    1.34846419467979    0.24584105321312
H         3.26173967058929    2.24711922664066   -0.47680849521935
