38
 energy: -53.132985151312 gnorm: 0.149609153436 xtb: 6.4.1 (79825abcba525fcdf90b791dcacef51065a7a4e7)
C         1.15632169390276    1.18021590776913   -0.15030729955989
C         2.53100107033265    0.36778061848085    0.25359169409834
C         3.29338776873933   -0.30865740147833    1.63564219598964
C         2.47741585499771   -1.29270074851502    2.54331548508690
C         1.06515634793730   -1.17224192691319    2.02674112999088
C         0.07020316792310   -1.93868943818982    2.88785409854603
C         1.17389782649598   -1.68699941534555    0.41054510743840
C         2.29448112312798   -0.96566859045317   -0.45303970661939
C         3.47351721969209   -1.87386187885984   -0.76269765398033
N         4.69337060266259   -1.33278307878177   -1.07733609916481
N         3.37709958314633   -3.15808940643876   -0.94268224935092
C         0.67948691412912    0.40184669137121    2.28872008540002
N        -0.54114517806749    0.84815446588503    2.24993798159356
O         1.62460230160618    1.13950540245552    2.85151189742265
C         2.01872686897423    2.43780309941014    2.31024080198170
O         3.10810417234894    2.44521091698883    1.35491489493646
C         3.40774813745987    1.59757059080897    0.20617013795095
H         1.36035918823291    1.37877954600267   -1.20725561520489
H         0.85991213131324    2.08834795701173    0.39758117789668
H         0.25003388123889    0.58847040307740   -0.07954915808552
H         3.67776271690499    0.43820656363540    2.33506721070499
H         4.12727054556695   -0.86486745378939    1.17787683522275
H         2.53373621134297   -1.00464727047534    3.59725114316543
H         2.87133710934672   -2.31698199752778    2.53192688531085
H         0.23509752585016   -3.00049565605326    3.06352984032710
H        -0.96467043737972   -1.81685708562160    2.52354781252615
H         0.00867758459949   -1.53279581674214    3.90357092161886
H         0.14824282420517   -1.61100952312240    0.03334915767915
H         1.50035394634146   -2.72579361709682    0.59065125430800
H         1.87809111466012   -0.73556278797933   -1.44887529718687
H         4.88401713996017   -0.35499560670526   -0.97098211819962
H         5.37068871380044   -2.00028805568445   -1.42899184651261
H         2.45167446224818   -3.49996275231074   -0.69199292289919
H        -1.14209815836114    0.12075980515254    1.86324527777182
H         2.51590561718370    2.95258766630805    3.13900299625546
H         1.18243695417963    2.96969719811642    1.84641691314059
H         4.49347987562940    1.54831352877387    0.31319216126122
H         3.22372924713398    2.24457790288109   -0.65852253785035
