38
 energy: -53.126745435929 gnorm: 0.156482743214 xtb: 6.4.1 (79825abcba525fcdf90b791dcacef51065a7a4e7)
C         1.03118223377671    1.10458080070623   -0.13422312479000
C         2.41526614786694    0.31951110671079    0.29110757866300
C         3.21763315085063   -0.32368579236105    1.66637861936932
C         2.38207873053435   -1.36654175598030    2.48633138250459
C         0.97082668791654   -1.12614030309990    2.01050462233841
C        -0.08995859964736   -2.00316304270522    2.66200660072627
C         1.13741586209050   -1.60284338949026    0.38757771580140
C         2.29729387310957   -0.98112747042922   -0.50121705764810
C         3.55324233804295   -1.80510936500152   -0.73461917581313
N         4.52273304743425   -1.19443477916832   -1.48759343671635
N         3.80945433458416   -3.00361197337709   -0.30001811084152
C         0.67078611107582    0.43291158214686    2.42819068615396
N        -0.51310045379616    0.96463422387999    2.50769521661395
O         1.70505003467950    1.14064499841622    2.85659423204144
C         2.21712450195136    2.36927213540285    2.25481307451529
O         3.37619809869706    2.26715444339205    1.39135158147762
C         3.33039324556120    1.51286996285331    0.14361282636172
H         1.36752334109858    1.52135504912101   -1.08888141449307
H         0.79838320679359    2.04194036968088    0.39483820474273
H         0.09452507456137    0.55806072685447   -0.15694394698559
H         3.70034121612559    0.41357181097919    2.31305426217351
H         3.94359519352443   -0.82257064252408    1.00428174982914
H         2.44297824107620   -1.32692679895882    3.57795817910739
H         2.74776575464540   -2.37481569453973    2.25371066849283
H         0.31963604966699   -3.00094633789503    2.81081949825192
H        -0.95182980809298   -2.21103218860391    2.00436383642173
H        -0.40272992961542   -1.54537254115131    3.60689688147099
H         0.17355569066665   -1.46569672982036   -0.11460133490053
H         1.19917797105552   -2.69514910159877    0.53303864311683
H         1.79105322726788   -0.86232948662861   -1.47467753580322
H         4.61432820019294   -0.19693292373711   -1.46953802914672
H         5.35319528009004   -1.75589121970381   -1.33566041757736
H         3.00877450527606   -3.43036447412458    0.16142342710444
H        -1.37084647613060    0.45303532913647    2.30198416698854
H         2.70519540548889    2.84626961804598    3.11114059732679
H         1.47747134901425    3.06126292040348    1.84070353335832
H         4.38767751442632    1.28514774195579   -0.00799841338707
H         3.18304284759959    2.29542206806952   -0.60876667593489
