38
 energy: -53.130751211023 gnorm: 0.145494131140 xtb: 6.4.1 (79825abcba525fcdf90b791dcacef51065a7a4e7)
C         1.14319102869577    1.21113363655004    0.02015563240755
C         2.51434272416005    0.36769218276661    0.36869321964649
C         3.32967353968119   -0.50400447312508    1.60329683344145
C         2.40571500193355   -1.35561364736801    2.54089200892115
C         1.01982763425543   -1.13309248828090    1.98804769643735
C        -0.05425079553861   -1.94312152115198    2.70155848899889
C         1.19233307497383   -1.68838753022850    0.39093190507687
C         2.21227503466584   -0.85478141894179   -0.49598585782452
C         3.38219086394753   -1.75420380713567   -0.86090449870527
N         4.24762626884868   -1.08911142610480   -1.69065121912172
N         3.62386664254495   -2.95394323246475   -0.42141693898529
C         0.66552298480597    0.41956289199292    2.38661801601849
N        -0.52949234962806    0.92533543604203    2.30433898493924
O         1.68773534685767    1.06672499188149    2.92548828754054
C         2.27289994322477    2.32384094270070    2.46600232494685
O         3.33326558198051    2.25880930623812    1.48068969869859
C         3.52512227793581    1.48552767749773    0.25875611061318
H         1.34817242929521    1.63623146128280   -0.96750474680045
H         0.90260489900106    2.11802005465141    0.59671402048022
H         0.18343736942938    0.70828271397247   -0.03025192636903
H         3.95718846500778    0.16875197235272    2.19352477211250
H         3.96329064499046   -1.16648561804577    0.99180085283535
H         2.54589448437979   -1.03017665019320    3.57596091036889
H         2.74240878122387   -2.39607273698175    2.44849119567385
H         0.27871264212346   -2.96755665931025    2.86015407548312
H        -0.98031623978708   -2.03140338803258    2.10730713300638
H        -0.30846182199999   -1.47593506844551    3.65933156533821
H         0.20951871734439   -1.51732903399457   -0.06165441737128
H         1.48025479280918   -2.74410469015850    0.53469412934125
H         1.71897488499524   -0.63800758787862   -1.45914832041463
H         3.90289795054900   -0.41831552867605   -2.35013652855829
H         5.10344932520833   -1.58649006195451   -1.91011848629305
H         2.98219943670726   -3.26044764708646    0.30690470725995
H        -1.17405198737649    0.20834089089752    1.97231426288868
H         2.74582903040257    2.61568430788908    3.40950757600543
H         1.50854387252844    3.03604082676987    2.14049369184253
H         4.53925500946463    1.09064497772315    0.16767450275875
H         3.41663933135054    2.23012077301571   -0.53747716083118
