38
 energy: -53.126406709978 gnorm: 0.142368155083 xtb: 6.4.1 (79825abcba525fcdf90b791dcacef51065a7a4e7)
C         1.00942888704975    1.06905252909224   -0.04216732880129
C         2.44359397172767    0.32663732916047    0.28174479974894
C         3.23404257245753   -0.39752087280505    1.62325565430399
C         2.42032704331989   -1.28372104038744    2.62851112826693
C         1.04866501313472   -1.15386226353879    2.01408761936742
C        -0.08772917152618   -1.92793914678758    2.66853576204905
C         1.23324306173128   -1.76651339904734    0.43945145446335
C         2.25280504677265   -0.97852497279725   -0.48864951905606
C         3.51294501274484   -1.78578541788133   -0.75549605052857
N         4.57443353810859   -1.03930627854118   -1.19800810399931
N         3.76920568727068   -3.04333477268196   -0.54613692737532
C         0.64810350944913    0.40429654051025    2.34092152510243
N        -0.44254958474599    1.08902026147991    2.52055054931858
O         1.77529578290000    1.05483801346088    2.58658683240185
C         2.11340744740609    2.42837392961668    2.22194307456215
O         3.27711201899200    2.30712616230857    1.36722906871802
C         3.39513139782536    1.49431974045093    0.16169503736083
H         1.07568197198051    1.48932451046121   -1.05072101838005
H         0.65155965541601    1.99824761955052    0.42822646750699
H         0.16192358084419    0.39405862952384   -0.09359736035428
H         3.69987894203057    0.40802265339848    2.19670254915938
H         3.97476716456594   -1.01524974992058    1.09032287501182
H         2.51668894386524   -0.85327589602393    3.62968968992354
H         2.79045348189227   -2.31582924801601    2.67557266184404
H        -0.07734526880377   -2.99818101980466    2.46863813577929
H        -1.05968758169408   -1.49750148650355    2.37096923919676
H        -0.04655574087143   -1.84178106556082    3.75990976912835
H         0.24840925113535   -1.93823496563108   -0.00846984830338
H         1.61355863533590   -2.74328892660436    0.78495810979491
H         1.66865854490275   -0.84581384817197   -1.41556831801915
H         4.36752609071551   -0.23340004326334   -1.75606730038923
H         5.37592225613653   -1.62820052290178   -1.39499514429683
H         2.99225654861370   -3.61064346255109   -0.21350340732613
H        -1.30241406847872    0.55766960534800    2.38609513227201
H         2.49322832028590    2.93050162961624    3.11784513819899
H         1.23463169792468    2.91736872613960    1.79059400038400
H         4.42783853958657    1.14151696964653    0.20340314218149
H         3.33176110249499    2.12182625914785   -0.73406978279643
