38
 energy: -53.124624625391 gnorm: 0.148596388286 xtb: 6.4.1 (79825abcba525fcdf90b791dcacef51065a7a4e7)
C         1.17884983236071    1.20396532446862    0.01024308196817
C         2.59153663005952    0.44649919778020    0.38904380646890
C         3.27274104185372   -0.39110945527688    1.72442307146044
C         2.37108823395097   -1.37364068931389    2.54884824882748
C         0.98642100567894   -1.13520179167629    1.99959432271877
C        -0.03511522915785   -2.08402412020470    2.61203948102865
C         1.11920244774466   -1.43332554661095    0.33154729611280
C         2.35503754557765   -0.80995633573459   -0.44686536316720
C         3.41243902496828   -1.81143500714668   -0.88249342248641
N         4.20333112591987   -1.36161844581480   -1.90814475486130
N         3.64884799075323   -3.02814060883934   -0.48921306981853
C         0.70313001792226    0.39224467164282    2.53042608643807
N        -0.49901732793905    0.88256213822819    2.60161540110711
O         1.73997739859850    1.12628949546842    2.90491745702489
C         2.15514507374979    2.37270038240953    2.26618340546288
O         3.40838653996161    2.28357408371779    1.54445789079471
C         3.56362690320192    1.59690228159689    0.26685175487357
H         0.76140606527333    0.91231797455149   -0.95871567856808
H         1.47559784511503    2.26437385303126    0.02502873610633
H         0.32408694580713    1.10815901029693    0.67109754259510
H         3.89128869898595    0.23404056451833    2.37352359188770
H         3.99081020952800   -1.06787159591264    1.23386327161561
H         2.44828928422409   -1.17545646939486    3.62201653803400
H         2.56953919186078   -2.44201699239676    2.39507884111937
H         0.15364329857915   -3.12018424693934    2.33594715674133
H        -1.05450731579154   -1.92665202981864    2.21884821599663
H        -0.05569292827353   -1.98643980844439    3.70303423641550
H         0.16604838527735   -1.10261226679458   -0.09523778114275
H         0.92303673505349   -2.51904182101915    0.30248891604276
H         1.97868297239948   -0.56212592578297   -1.45431520671753
H         4.46019638483205   -0.39489742203922   -1.96468075507532
H         4.97748037188052   -1.97604588340175   -2.13432246653441
H         2.98541614756913   -3.45833919723566    0.15181854836276
H        -1.18684380639895    0.18940574489393    2.30800397228911
H         2.39042112655276    3.08009536860438    3.06822713635717
H         1.24709021098921    2.80081320412389    1.83077493691039
H         4.58958712912948    1.23716523581898    0.37023588369444
H         3.28639617594945    2.31335556448224   -0.51418132509363
