38
 energy: -53.124240086151 gnorm: 0.161163104142 xtb: 6.4.1 (79825abcba525fcdf90b791dcacef51065a7a4e7)
C         1.15506380134045    1.19176100352527   -0.04457874816017
C         2.53837251106737    0.38966239945154    0.35041965745559
C         3.34067123531597   -0.40973814742338    1.64121049285470
C         2.43534195050557   -1.44843662352328    2.38921225100830
C         1.05547487011947   -1.11464769090984    1.87892991359443
C         0.01236635018005   -1.94601553882035    2.61353270599708
C         1.04283287416425   -1.55325400443912    0.23687199360882
C         2.21137392680053   -0.80853290371028   -0.53882519526650
C         3.35707149802716   -1.77785864349347   -0.78092832186004
N         4.52378064376357   -1.21004738758818   -1.22385727811099
N         3.40791778087115   -3.05897784068180   -0.56395040556061
C         0.69109797438143    0.40541299352454    2.38070055358214
N        -0.50416936336724    0.88651010502464    2.55539714786702
O         1.72711774926426    1.05772009898133    2.88594952232634
C         2.22672222125447    2.34553556945373    2.41075256211456
O         3.36432493030203    2.19578140414625    1.52594798532004
C         3.52805641482365    1.52620485446238    0.24035302332119
H         1.26198243191038    1.43535871112293   -1.10638245862054
H         1.09587747712455    2.16364737694273    0.46989000220231
H         0.27758987496379    0.63344687889625    0.26340162124197
H         3.91046565102670    0.24613483387880    2.30446774394005
H         4.02636451439338   -1.01586284917587    1.02743788766854
H         2.28573751655649   -1.34184979505183    3.46772276097959
H         2.76068034287965   -2.44250138319674    2.05687821938472
H         0.16997545035666   -3.02263857418962    2.57445885443229
H        -0.98597337423243   -1.67926252459804    2.22534951044930
H        -0.09351604775426   -1.56933883969381    3.63682116691521
H         0.05072561259913   -1.41077608579530   -0.20521696818217
H         1.20742493648381   -2.64155415557371    0.31821967609193
H         1.81338907187258   -0.47142875944713   -1.51144366533371
H         4.36535486599715   -0.30537648890258   -1.62410402617087
H         5.27535524507872   -1.72573706032925   -1.66791162470459
H         2.58794929299761   -3.42656493629915   -0.08576050409763
H        -1.29107771852393    0.26395870739182    2.37378297679938
H         2.54799229166729    2.91222762563615    3.29091293371755
H         1.41826111900580    2.95436261902560    1.99464558508566
H         4.60385232054529    1.35963682202355    0.15310825263706
H         3.24001323958198    2.20203323253157   -0.57233509807116
