38
 energy: -53.132204002161 gnorm: 0.150918049750 xtb: 6.4.1 (79825abcba525fcdf90b791dcacef51065a7a4e7)
C         1.07234482142038    1.12005834416272   -0.16537969489165
C         2.47797243140304    0.40719492317302    0.31312386338167
C         3.29056840006225   -0.22669109393539    1.68671105403362
C         2.48294158866763   -1.35485113733223    2.41679057966834
C         1.03331668650733   -1.14843703906884    2.05372429348040
C         0.04138462667806   -2.01757922464134    2.81500726939547
C         1.09022041994938   -1.59311734723993    0.41423934203249
C         2.29181995117736   -0.93618485578609   -0.38975199371588
C         3.49583794701548   -1.81443548952692   -0.68949471024736
N         4.65685858191395   -1.16591478000184   -1.02304811722978
N         3.55961143003152   -3.10468039334081   -0.54072583337702
C         0.62111823991272    0.40633772655613    2.38220051008441
N        -0.60217318366861    0.83895177540198    2.29829280836155
O         1.59074231683584    1.18593861640594    2.83625957134182
C         2.15612555848046    2.38030253431507    2.21358624733809
O         3.32283168400159    2.29441423459364    1.35867959751013
C         3.41662802514601    1.57116128890492    0.09534963846197
H         1.17168110796725    1.17940357738364   -1.25386901619251
H         0.85773247863446    2.12808017206323    0.22266382167283
H         0.19287124284259    0.54330208718233    0.09996065899306
H         3.76674592284136    0.53363201651273    2.31113795822278
H         4.09298282887499   -0.79034238472412    1.18401080125137
H         2.66280283882350   -1.25729247803492    3.49152747227493
H         2.73821927223769   -2.36041297238167    2.05883188695524
H         0.29008501007245   -3.04285983574810    2.54587468714259
H        -1.02734807298615   -1.90247946593610    2.56383398280001
H         0.11028257917897   -1.81917676324980    3.89023060571237
H         0.09269260543050   -1.54642658290452   -0.03606905068916
H         1.30400293383674   -2.67587551482092    0.42032124262334
H         1.94604078814288   -0.62672660355873   -1.39109619259708
H         4.51898670164866   -0.27265988616871   -1.45526641644172
H         5.26144109289440   -1.90556886515381   -1.36271901020358
H         2.70750593629842   -3.58327762509634   -0.25612947314242
H        -1.34967251600787    0.18840806405453    2.05784253874063
H         2.52895214310057    3.01009030690430    3.02808260693641
H         1.41228687359627    2.99294439238792    1.69512823715861
H         4.47159604288844    1.29036667094792    0.12518689214238
H         3.20881844280823    2.31846761100421   -0.67829322405428
