38
 energy: -53.126564251288 gnorm: 0.159957680556 xtb: 6.4.1 (79825abcba525fcdf90b791dcacef51065a7a4e7)
C         1.08890266028519    1.17474489516049   -0.15976695673171
C         2.47738338277673    0.41117615163160    0.28969154974696
C         3.24981927062860   -0.26831817105137    1.66464454582672
C         2.45710433150637   -1.29343380322998    2.54712017477216
C         1.03379337810166   -1.17788581654417    2.06063186213705
C         0.10307033268130   -2.17535528056632    2.73716598449415
C         1.05174763618007   -1.45507616504216    0.38380965580524
C         2.30046188117043   -0.91993002934933   -0.43846474739403
C         3.48798991485138   -1.85274850303046   -0.61298156968878
N         4.45461708067684   -1.22656952984904   -1.35684832179527
N         3.48698279530121   -3.14918873682387   -0.51212087669080
C         0.64971202423007    0.37788233502329    2.41727704220414
N        -0.55647958160264    0.86198386468790    2.38006317388219
O         1.66843400336786    1.13975950379724    2.78587813702398
C         2.17189867574492    2.38448544865190    2.21049469450124
O         3.31934121767047    2.40241710836229    1.32590471342924
C         3.49678647222575    1.52090497089397    0.17727740662590
H         1.20720909819796    1.37396017913298   -1.22958722866726
H         1.00275195381494    2.16803160912498    0.30789082158190
H         0.12885094563508    0.67181186903711   -0.11633736025813
H         3.71632688930635    0.51313430217962    2.26999395464004
H         4.08282100395179   -0.70457194730298    1.09012736384336
H         2.58273320172183   -1.01421909797348    3.59744569118168
H         2.85064725771834   -2.30946559526810    2.41574631816765
H         0.45570696252253   -3.17505284234402    2.48869716529550
H        -0.89311311828423   -2.15680823420160    2.26198169725672
H         0.01079576853417   -1.95854686732040    3.80707028172934
H         0.05489387771167   -1.21067951840291    0.00096203605290
H         1.05150586319072   -2.55775546073686    0.33686791956276
H         1.77447634711459   -0.98747119338557   -1.40634659215533
H         4.37651206996011   -0.22900434128450   -1.40673746185577
H         5.38969339076618   -1.60454083134209   -1.25314450604427
H         2.70432352915083   -3.53588313925074    0.01137323969288
H        -1.22909673943105    0.12552307070589    2.16795382626806
H         2.63674677584038    2.85639561089104    3.08241996279955
H         1.31251173509454    2.99318770270244    1.91323992717718
H         4.52113826243333    1.16502681390679    0.30668972201101
H         3.43154138796994    2.22095259060263   -0.66287213794070
