38
 energy: -53.130984295074 gnorm: 0.144401306479 xtb: 6.4.1 (79825abcba525fcdf90b791dcacef51065a7a4e7)
C         1.10528420738166    1.11366917698887   -0.09030300438409
C         2.46676409541494    0.29907368544464    0.35211713281455
C         3.22436163321723   -0.41484803070732    1.71785034411304
C         2.34300303871077   -1.28480807566579    2.67930694642919
C         0.96728628369225   -1.21145151074650    2.06460501355368
C        -0.25527000228207   -1.91670543947696    2.63632358448546
C         1.19820575296804   -1.77505008433319    0.47780876375162
C         2.26798325439318   -1.00898779649065   -0.41130790648974
C         3.57071906363740   -1.72675354568854   -0.72518836541946
N         4.40142333075857   -1.05310409530503   -1.58305358489661
N         3.94610328309992   -2.94826840258769   -0.48452410719907
C         0.62711033234247    0.37384285307257    2.32199744566012
N        -0.52095454421231    0.97244222469553    2.44142592299939
O         1.66033570211104    1.11502014070892    2.69242909471490
C         2.19620268669908    2.38738276183388    2.21511852271015
O         3.37335741337186    2.32328652698021    1.37271494670636
C         3.48507280462936    1.40991974244947    0.24082452060987
H         1.39156504783087    1.33298694205431   -1.12381234567419
H         0.87564183186156    2.08299401231872    0.37918391908212
H         0.18286769300291    0.54306184466623   -0.08124210662054
H         3.74680450344633    0.34633797818811    2.30299522759078
H         4.00045207571334   -1.08936959342115    1.32163889534191
H         2.48886975951076   -0.83360381147595    3.66524039002219
H         2.75141185974929   -2.29248410479892    2.82846111364731
H        -0.16795193475796   -3.00183839165254    2.65494018019486
H        -1.10373009571389   -1.79310323120881    1.94108008412859
H        -0.58153784523687   -1.53481174304381    3.60993653415276
H         0.24253301306976   -1.72497919682239   -0.05529717936652
H         1.52035041955348   -2.82338818883759    0.60156347552803
H         1.70911771608734   -0.82686669802641   -1.34539518436745
H         4.23624416557519   -0.12041263507288   -1.90944000266114
H         5.31694073169928   -1.42843221697089   -1.80428009674498
H         3.32122391536595   -3.42901363093801    0.15932678716562
H        -1.34343371221199    0.38884778803585    2.29068024264363
H         2.70086291381269    2.68811087556795    3.13919497406372
H         1.48563019770281    3.15899903063052    1.90347801183844
H         4.53119772401284    1.10347409129210    0.17443847185519
H         3.25126946151043    2.05999124554952   -0.60942126087951
