38
 energy: -53.124883549243 gnorm: 0.158929514843 xtb: 6.4.1 (79825abcba525fcdf90b791dcacef51065a7a4e7)
C         1.19472264029447    1.18295036765085   -0.02819124580398
C         2.56523260224705    0.36232869561556    0.37332020531056
C         3.27234012805844   -0.34169322026383    1.77089581434197
C         2.35676961297703   -1.23410766036358    2.67828182687153
C         0.98924708203823   -1.18177337340640    2.04347513714336
C        -0.06507315698205   -2.09619441822958    2.65268128376446
C         1.14440249353038   -1.62332339431375    0.40950759112809
C         2.29981191162304   -0.91623417723807   -0.41926124547728
C         3.48756486936530   -1.82621751162136   -0.68759414596699
N         4.37906772488824   -1.23698952030319   -1.54656968525684
N         3.51077692516932   -3.11393197840608   -0.50819557171469
C         0.57260239527145    0.38677810276306    2.29082565345699
N        -0.63593937231675    0.85957998475756    2.21006350635353
O         1.53106207147622    1.20362047640485    2.70099833164627
C         2.26237522065112    2.40933477832658    2.31979033811560
O         3.33309181642955    2.34675509708584    1.34557521296648
C         3.54845176332417    1.49370351329106    0.18203825600267
H         1.23189259760333    1.30598141852488   -1.11524244832513
H         1.37701914749245    2.17112973158330    0.42237925741854
H         0.31717344821754    0.63654039122683    0.30024538755234
H         3.70007744421166    0.54566846891234    2.24457847355735
H         4.10741643656408   -0.88363013004908    1.29842234149961
H         2.43487832082462   -0.89099205655441    3.71418619759397
H         2.75865757832419   -2.25256688159294    2.60289874770963
H         0.33385614438469   -3.10673537062642    2.72442357913674
H        -1.04308129272761   -2.03196383264458    2.14484264494996
H        -0.18273870597756   -1.70808584338659    3.67039551240162
H         0.19600293060720   -1.59087607359227   -0.13776280018949
H         1.36541964530476   -2.70270270155140    0.47429147330140
H         1.85769920686214   -0.60811351323824   -1.38238941970974
H         4.43890652615568   -0.23732478899525   -1.51801500604271
H         5.25169222996283   -1.65332485504108   -1.85181688613200
H         2.74326286874712   -3.48717185584211    0.04655513694696
H        -1.35056323779197    0.15950139282823    2.01262640452931
H         2.79408349523921    2.64855874393223    3.24666402266210
H         1.55113052454337    3.20738183204008    2.08596001100598
H         4.60441280171385    1.24346408745984    0.30459404660691
H         3.45622449507984    2.10091981792633   -0.72513170820084
