38
 energy: -53.133397286967 gnorm: 0.150999297248 xtb: 6.4.1 (79825abcba525fcdf90b791dcacef51065a7a4e7)
C         1.26377546832573    1.20576248710966    0.08132852153751
C         2.65740939951257    0.39244221796084    0.41181834934247
C         3.35324489227362   -0.45745672054829    1.73179949907903
C         2.37251902050438   -1.40181678606981    2.50922030019404
C         0.98445620295999   -1.10589544133472    1.99780221364622
C         0.00488536730208   -2.10518788820015    2.59842249488176
C         1.09465456150252   -1.46006591346814    0.33909514230389
C         2.31520623528963   -0.82100239088149   -0.45062332577517
C         3.38389224088068   -1.83378279859088   -0.82879697255061
N         4.16888639507720   -1.41407717378891   -1.87159958300415
N         3.55960777759011   -3.07955212994326   -0.49999006351508
C         0.63429039345644    0.44071240741449    2.42267497377726
N        -0.55602556387957    0.96131622442445    2.47518148113487
O         1.70138565887302    1.11709949745390    2.82007434337364
C         2.17991551980830    2.42796018401300    2.38817284632804
O         3.33630049891368    2.33716877992080    1.51985488643144
C         3.55969150103826    1.59763039817758    0.28248889107276
H         1.30921616497619    1.35427898438963   -1.00221961041778
H         1.26032916391459    2.24249957282086    0.45268896762825
H         0.39033582328143    0.68358616830400    0.45677777912383
H         3.86339479117565    0.22491512013719    2.41653374349969
H         4.16143102323472   -0.89576586408283    1.12434620060645
H         2.50134280214763   -1.25481993951889    3.58566050503659
H         2.60166219744370   -2.43638330105735    2.22352594752756
H         0.22816917453183   -3.17061263861722    2.57608435689420
H        -0.95762609906897   -1.91416758439123    2.09284511007966
H        -0.23877114155315   -1.88602123118742    3.64379954223244
H         0.13020501616964   -1.21274267271740   -0.11772837764258
H         1.18382678484771   -2.55789736682607    0.40923520246497
H         1.92474164502551   -0.49509098416039   -1.43008083392952
H         4.38744961048871   -0.43705684659930   -1.90884231021609
H         4.89428598131038   -2.01182263297973   -2.25170521746474
H         2.89641952952913   -3.40798901939362    0.19889814848110
H        -1.28041824939047    0.30023980962980    2.19587532952745
H         2.54790794388974    2.87769509930137    3.31626589661557
H         1.35131405695039    3.04681702052700    2.03059686723206
H         4.60165781141875    1.29186749182916    0.39871564217526
H         3.25065938415963    2.26006076819522   -0.53351356363517
