38
 energy: -53.135983688199 gnorm: 0.154138638127 xtb: 6.4.1 (79825abcba525fcdf90b791dcacef51065a7a4e7)
C         1.14846535944617    1.21338343538132   -0.00402284287791
C         2.57826972940318    0.45018567147834    0.28943507477422
C         3.33660565235952   -0.42302828810525    1.55880085978181
C         2.40631462096839   -1.37001345213645    2.39294710843439
C         0.97275798575186   -1.15252565898305    1.97647297304204
C        -0.09161650906652   -2.04508558865337    2.60043839127592
C         1.03028967256433   -1.51068747715663    0.31596107300782
C         2.18841057527557   -0.79634065578289   -0.50273816671082
C         3.35512523799012   -1.74552290680026   -0.72332654989328
N         4.33275383120806   -1.24310332798926   -1.54285253616590
N         3.54008642704399   -3.01564207651800   -0.51471725266103
C         0.62846276852344    0.40264841630600    2.37399429409469
N        -0.55624949661767    0.91263664456146    2.53832994229163
O         1.68669568030608    1.05804936073487    2.82644403426879
C         2.32771905160180    2.30523032794523    2.41715912764422
O         3.51356473180734    2.15948949298758    1.59741831274792
C         3.57979178689853    1.58128851590520    0.25981120745166
H         1.17677459214309    1.41291282060912   -1.07993416465134
H         0.91864063212878    2.15754504682456    0.51413126920408
H         0.24880815194837    0.62203137760605    0.12806316920652
H         3.82419735307002    0.31199830770927    2.20435138022907
H         4.04948967290370   -1.06430444143400    1.01580868315417
H         2.62595959789204   -1.13114272591033    3.43775523087357
H         2.71426189651373   -2.40486873817119    2.19622716053034
H         0.25527312832273   -3.06335166494704    2.43225295935761
H        -1.12900562211009   -1.88394961074486    2.25928654083770
H        -0.19367729733578   -1.81363929138399    3.66638018038847
H         0.07381994870189   -1.28056585279153   -0.16594051803213
H         1.15316286618767   -2.60417248142895    0.23053312962876
H         1.81618481265881   -0.66381829064331   -1.53322526494815
H         4.33811843363635   -0.24129142090830   -1.53450074894352
H         5.23341176945831   -1.64588428785383   -1.30925614558350
H         2.81841685971725   -3.45188125110327    0.05539027930622
H        -1.32839070721821    0.30551338952070    2.26450880060505
H         2.72858423032039    2.70803933956269    3.35315519504186
H         1.59438194358553    2.99276393804804    1.98479473582700
H         4.60586143863862    1.21271956091614    0.19631792565365
H         3.35927396941904    2.33101265212178   -0.50795207683107
