38
 energy: -53.134123904831 gnorm: 0.157015946972 xtb: 6.4.1 (79825abcba525fcdf90b791dcacef51065a7a4e7)
C         1.21088325601017    1.17175744251997    0.06058567697940
C         2.57158588218853    0.27582954246457    0.30292941845300
C         3.27406475593387   -0.50016500702084    1.66426016004336
C         2.30355277533056   -1.40364187543193    2.50083551659843
C         0.89877481866847   -1.09183598072048    2.04783190120584
C        -0.07584829337547   -2.05599170299711    2.71070645917995
C         1.01141298087373   -1.60081427699985    0.43007317485622
C         2.13752737722167   -0.95775132095721   -0.48651846789648
C         3.39279817199484   -1.73918485859435   -0.83934439959967
N         4.20646236873434   -1.02806849861276   -1.68318682349825
N         3.73809016364482   -2.96026939250665   -0.55534231531759
C         0.64378665855102    0.50263736307129    2.34408281108514
N        -0.55254433905698    0.99434044853498    2.47696462624755
O         1.70618354932617    1.16836499750076    2.77097579690908
C         2.33973449514320    2.39448113610758    2.29229231639021
O         3.53395384282391    2.22855323608158    1.48870445382565
C         3.57609775373891    1.40453597183151    0.28574369257961
H         1.25568431224885    1.23346106926555   -1.03137773491766
H         1.09322751858725    2.16883660760198    0.51306165151974
H         0.31731972426274    0.61567544664368    0.32296726057868
H         3.77179045068725    0.18148245257068    2.35878957919661
H         4.04125942511272   -1.14496308382660    1.20608222642997
H         2.49521757006630   -1.32211557302511    3.57486774359493
H         2.53107701000296   -2.42977585106036    2.18502303014949
H         0.32949843811957   -3.06612965440906    2.73898910079892
H        -1.03021465395056   -2.06394936829551    2.15604701805525
H        -0.27095226170984   -1.68851919721098    3.72417283339385
H         0.07146963743881   -1.54025257816842   -0.12926413634408
H         1.26878929209286   -2.66635138379489    0.55849951589972
H         1.70037293845441   -0.61812715380671   -1.44127983961199
H         3.96154981576268   -0.08896213463325   -1.93182853906441
H         5.17539465299655   -1.32569564071898   -1.70712018817710
H         3.00698131057187   -3.42428397626835   -0.02026802730209
H        -1.26145328613572    0.30258124662720    2.23469199282362
H         2.77721621185364    2.85727520263301    3.18306053894741
H         1.62695144761626    3.13765632502707    1.92208195728415
H         4.63773449335847    1.16347303609473    0.37240102494884
H         3.49019312248027    2.10427574715704   -0.55280236546682
