38
 energy: -53.132966701601 gnorm: 0.154200964695 xtb: 6.4.1 (79825abcba525fcdf90b791dcacef51065a7a4e7)
C         1.19676093055080    1.23391282230972    0.00837214717616
C         2.56842455930616    0.36899363132793    0.29713260004491
C         3.31748052734312   -0.42027881124252    1.62560151296925
C         2.39224160806522   -1.30571713069597    2.53000972139985
C         0.99568827470179   -1.09524519157479    1.99974879058892
C         0.03837868203225   -2.11322906518886    2.60485732075281
C         1.05313517708889   -1.54486544724446    0.36163065142343
C         2.23525370077400   -0.90211401835692   -0.48173773313522
C         3.39371199675291   -1.83674044663391   -0.79040756506718
N         4.56400077645477   -1.21145765967662   -1.13573571339145
N         3.40287225348895   -3.13473915649486   -0.86816746671730
C         0.65210835667770    0.44789238403831    2.44225085508646
N        -0.54839609091279    0.91834636707042    2.60987983058765
O         1.75282644503989    1.09381847369689    2.79625260877762
C         2.18737331156136    2.40367483221800    2.31736764298896
O         3.30320580042457    2.35087606551432    1.39455914815802
C         3.48345064341891    1.56564297507190    0.17849338327648
H         1.27507931821342    1.45856547278268   -1.06008280174448
H         0.98208546286671    2.13972353746505    0.59673056760375
H         0.31527714492081    0.62176000540823    0.16579619446492
H         3.84259207753731    0.34365378364479    2.20474751295504
H         4.05942391136848   -1.09129384828071    1.16349971435989
H         2.49306742900373   -0.89101069933853    3.53737256228112
H         2.70913924723543   -2.35500572249129    2.47500908022253
H         0.41831053406652   -3.13345411540257    2.62150647532302
H        -0.92536800595110   -2.07763892329171    2.06778075622089
H        -0.13308883112284   -1.86004638404937    3.65686165344804
H         0.03538029851690   -1.33188180232612    0.01690987420501
H         1.17326272445213   -2.63985159987742    0.43004052563858
H         1.91726889197201   -0.56928366675206   -1.48479678919695
H         4.46748260171297   -0.38509074581337   -1.69388227882715
H         5.14079514965019   -1.91157454245138   -1.58864751342248
H         2.67331268999911   -3.66623738589058   -0.39765004220596
H        -1.40978114181714    0.41661563769056    2.39526209043935
H         2.72602226534794    2.88907306157942    3.13790557211683
H         1.37477619488031    3.12143434722907    2.16927325057248
H         4.53860729138627    1.28481475570105    0.20025021865809
H         3.26964239841299    2.14314538442917   -0.72757054962897
