38
 energy: -53.123377634297 gnorm: 0.145942778360 xtb: 6.4.1 (79825abcba525fcdf90b791dcacef51065a7a4e7)
C         1.07096190023566    1.19283711411050   -0.03776916913256
C         2.47364536644262    0.40741537990558    0.32072866100462
C         3.33249238399458   -0.28125496893141    1.63867419240349
C         2.44743749344138   -1.28356274529215    2.45725786420344
C         1.01407007527123   -1.11897528886800    2.01657080567005
C         0.05944753778690   -2.07117195734460    2.72431825358748
C         1.09063893333445   -1.52106153474483    0.36691829478694
C         2.28806702213108   -0.89012857749823   -0.46367993073388
C         3.50085807223416   -1.78749918411530   -0.64994082010324
N         4.58137464957748   -1.30703467524302   -1.34380226103424
N         3.59714704682325   -3.04452627826382   -0.33128349428528
C         0.55258848238759    0.41847496582787    2.36067870315741
N        -0.66996727167649    0.85618444031322    2.42705026775525
O         1.58626594317246    1.14981422002886    2.74897221326914
C         2.18199726825692    2.37579798636036    2.22365950602153
O         3.33973015940978    2.35184303251652    1.35272548150935
C         3.39962111161116    1.58352127013112    0.11418202130118
H         1.21288883516109    1.36047860865254   -1.11012714818889
H         0.94629896346407    2.18869979200885    0.41550879907716
H         0.27474981302570    0.49721779589101    0.20448512432251
H         3.73857250919093    0.32179636153587    2.45486856676113
H         4.22496200043658   -0.74481588146594    1.18824274180632
H         2.70505420104418   -1.16475698121504    3.51387793236422
H         2.76283806413844   -2.33121298406760    2.37119287104975
H         0.52165421349273   -2.97603310385674    3.11556734193502
H        -0.70506183135012   -2.43989821569346    2.01856196654485
H        -0.49713290111924   -1.57865046070150    3.52921357478393
H         0.08225212390740   -1.32935737134614   -0.01573689200558
H         1.18442842423604   -2.61323677858637    0.49522254425474
H         1.98786517418249   -0.82771124319089   -1.52386896101797
H         4.51509054218099   -0.48515092767415   -1.91287092195350
H         5.12666575911649   -2.09566440821367   -1.67350704322925
H         2.90259455664108   -3.41998417607000    0.31118236537077
H        -1.26756661770901    0.09946038894737    2.09535394502786
H         2.59908510706304    2.70171328235169    3.18222801472265
H         1.50663148916954    3.14922213359678    1.84534628795755
H         4.47019250047613    1.37106316983766    0.07634213560862
H         3.16274841764939    2.16385468538178   -0.78430520976230
