38
 energy: -53.125014856407 gnorm: 0.159665110458 xtb: 6.4.1 (79825abcba525fcdf90b791dcacef51065a7a4e7)
C         1.29109818267738    1.27923559704033   -0.01644735788086
C         2.59030486334472    0.34961428908347    0.38454531379141
C         3.34365123430305   -0.46984958501208    1.69214375217985
C         2.37357525323125   -1.43715309511789    2.45457327597893
C         0.96132077892863   -1.17759352543255    1.99196932495279
C        -0.14759901854810   -2.07418453570740    2.52611405567375
C         0.94093801386459   -1.48029063176511    0.31959120785756
C         2.21268396270630   -0.88920395274308   -0.42544745174248
C         3.35696984541397   -1.82241160480260   -0.78678181453132
N         4.11351459837993   -1.17559897604483   -1.72969187064899
N         3.82080212272069   -2.95638807943430   -0.35102027613949
C         0.66935294282741    0.38959611572159    2.38414306475808
N        -0.49158811521324    0.95884599816662    2.52128459282244
O         1.71818418986432    1.01676380845174    2.89476208369914
C         2.24434159004631    2.28310986307241    2.39136210439408
O         3.41097916026806    2.26244388161708    1.53230734681191
C         3.62601280274106    1.44902390909355    0.34066828823906
H         1.19458886636456    1.21970211780436   -1.10518069232210
H         1.29546013663783    2.37299309088015    0.11169221609066
H         0.36806270521944    0.89262117613335    0.40195658216123
H         3.86289042862598    0.27522961422674    2.30041415282091
H         4.16961188506962   -1.00175331072389    1.19299782002098
H         2.34326365910918   -1.07097997938999    3.48507102993792
H         2.73932086713490   -2.46158805955378    2.30890627483653
H         0.17583132513965   -3.11058772662905    2.60824686915893
H        -1.13139204482403   -1.98960963756397    2.03263261426688
H        -0.30892534305518   -1.83643875109769    3.58331150784497
H         0.09052068703648   -0.95062795548898   -0.12342940712988
H         0.87212817312467   -2.56698989129833    0.13943814271841
H         1.81228522093844   -0.61807287865448   -1.41750926393480
H         3.82038816345296   -0.29033461056593   -2.09590152831792
H         5.05519031290432   -1.37130544801268   -2.05051940323912
H         3.22132997835308   -3.37568023169792    0.35676599949375
H        -1.22145218168516    0.37209443386086    2.11780006193952
H         2.65600698493422    2.75059256699741    3.29193312147579
H         1.51428014750361    2.93202753363046    1.89806614833394
H         4.65264926040010    1.08498219317478    0.41931057976508
H         3.53802319827134    2.22733548729737   -0.42527150191660
