38
 energy: -53.126628152009 gnorm: 0.151995268072 xtb: 6.4.1 (79825abcba525fcdf90b791dcacef51065a7a4e7)
C         1.07174064511831    1.06378454374980    0.07745313149099
C         2.53837748170636    0.36871853151760    0.35814608802940
C         3.24642390766464   -0.41691267530603    1.71103904558402
C         2.34573010820546   -1.35493299819354    2.58676208577053
C         0.99335275498711   -1.06205243829196    1.98581883723363
C        -0.20338763592396   -1.78638350449977    2.58752152143756
C         1.19162697253111   -1.65185511392233    0.40413944418430
C         2.31237041993142   -0.91188222768986   -0.44331443832965
C         3.47825704281813   -1.78568405936203   -0.87691330038528
N         4.17818189968273   -1.24812443411374   -1.92617053978611
N         3.82540818207403   -2.98391088757306   -0.50993958242398
C         0.69048786968739    0.50293930683795    2.37850515725865
N        -0.52696336619229    0.93851639924988    2.51533521458174
O         1.70212583104073    1.10996904571511    2.98035365907735
C         2.34648194110373    2.29332829125055    2.41612712229477
O         3.48089609045850    2.14934562426912    1.52628505113188
C         3.49914619282103    1.52529498682240    0.20790615887988
H         1.25289273558677    1.41856880515242   -0.94211079979909
H         0.69389760788377    1.87553099047688    0.71858227709517
H         0.19272790109359    0.42877266805147    0.05248167940413
H         3.87817098795267    0.29667309696562    2.24623640202580
H         3.95063211723132   -0.99223303815155    1.08864325381923
H         2.43224010619117   -1.10406971041806    3.64813421345833
H         2.72556415462376   -2.37046109206334    2.41680760584299
H         0.08251323781419   -2.82575957697595    2.74063141138534
H        -1.09146737419807   -1.68226823280924    1.94021945575255
H        -0.48703718290251   -1.46023204281443    3.59419120645916
H         0.21060396066119   -1.61732272019252   -0.08209177928133
H         1.41925561152947   -2.73020428967027    0.46290560486158
H         1.91693133797218   -0.53029485844474   -1.40041258720603
H         4.17637655171389   -0.25809868146840   -2.07970022926844
H         4.83795155148808   -1.82874837927806   -2.43170424308905
H         3.33668130220424   -3.31916526419354    0.31763803561956
H        -1.23548700989899    0.25632838627224    2.24627670482549
H         2.76069343280443    2.69108551748500    3.34846540013103
H         1.57475507300578    2.99386402127781    2.08279232495205
H         4.55721272623778    1.30653553263971    0.04874300326887
H         3.05682667492942    2.28176067402736   -0.44957993484989
