38
 energy: -53.127816914557 gnorm: 0.139414259168 xtb: 6.4.1 (79825abcba525fcdf90b791dcacef51065a7a4e7)
C         1.02439211040689    1.03879873555007   -0.08761158066883
C         2.48522177821900    0.37437930701055    0.28313415737346
C         3.28449603532753   -0.21820763606426    1.68272939923305
C         2.45301788115400   -1.22577440799669    2.54960629144605
C         1.04642864185321   -1.10998572096904    2.01674986506531
C         0.10764925801717   -2.08144550831144    2.71949325886169
C         1.19705967418214   -1.64113252950258    0.40924158155380
C         2.31988810280468   -0.94373175998943   -0.47092448581894
C         3.47415981037689   -1.91084965875331   -0.67869606415497
N         4.65398414589670   -1.31389902510520   -1.04128451829769
N         3.40870001527423   -3.20913260686127   -0.64541603093416
C         0.60354354337398    0.43590799200680    2.34719529310605
N        -0.57364690453899    0.97431862337246    2.22482714612022
O         1.66166379914399    1.12169671597312    2.75240312344419
C         2.23477876161862    2.41364526906558    2.38322347153477
O         3.19647272876421    2.44845246830514    1.29999749027701
C         3.31346999138858    1.62511609159057    0.10153013977727
H         0.98323596153883    1.17670531510575   -1.17273208163836
H         0.83802267816691    2.00185318335132    0.41292493383204
H         0.19550745208383    0.36572293403566    0.10329743195329
H         3.80741187474816    0.59670056502485    2.18990676348963
H         4.15094955638069   -0.70042538550215    1.20210108844259
H         2.50270829613526   -0.94310563036395    3.60533181393573
H         2.92006102227337   -2.19938303194905    2.35361476454602
H         0.46316120444544   -3.08166100128337    2.47728512050655
H        -0.93651694679607   -1.96195313455584    2.38190760517132
H         0.06839575168059   -1.86279413435295    3.79227768604178
H         0.18873629958619   -1.51481672964525    0.00016001474952
H         1.23358906167169   -2.74407385005440    0.42630745215430
H         2.08015347182046   -0.67474417036689   -1.51408833960314
H         4.66966416376193   -0.31342096851719   -1.09151808908478
H         5.38461137813236   -1.99051294581476   -1.23197258493043
H         2.51121734238529   -3.56706245964850   -0.32518916199355
H        -1.27439716700283    0.28625035557597    1.95043720455997
H         2.77948657536485    2.74103004024710    3.27493487555901
H         1.48284800033695    3.17110573176363    2.14181403310141
H         4.38428046020539    1.50543521249847   -0.07661254633712
H         2.96426104510832    2.27272865195609   -0.71015078680383
