38
 energy: -53.132375773292 gnorm: 0.132948174634 xtb: 6.4.1 (79825abcba525fcdf90b791dcacef51065a7a4e7)
C         1.10502071538053    1.06195674143046   -0.10166062836698
C         2.48894552473012    0.29018509839395    0.34783863507958
C         3.27421880586951   -0.49567079063716    1.65728199033489
C         2.30486919104781   -1.37917705943639    2.51623500704373
C         0.90786793166196   -1.06450499490439    2.04167703359603
C        -0.06983017833677   -2.04036516129063    2.68252995166018
C         1.13347585591957   -1.62953908042767    0.45462722855999
C         2.22389131830148   -0.96137956855328   -0.48684015116467
C         3.46637562299175   -1.78436687129975   -0.78642975631563
N         4.38582057639289   -1.12631923809093   -1.56192973847702
N         3.79657428506513   -2.96097190176291   -0.34201932717577
C         0.67636678193675    0.52748864898606    2.36892651626277
N        -0.40800066928281    1.23802692694024    2.26932771203444
O         1.76963642402343    1.11332456136751    2.83333563659632
C         2.20387744624402    2.41568513637741    2.33415916588527
O         3.36812157950554    2.25616219378669    1.48649566154609
C         3.43525856853655    1.46515706737613    0.26269065889197
H         1.33825176156286    1.46394418734216   -1.09272467107295
H         0.72149955030229    1.93126384259913    0.45508071366714
H         0.32200798021494    0.32577550098872   -0.24813693400613
H         3.65199420748113    0.20243588133709    2.40873263036171
H         4.05750220991814   -1.16020728517224    1.25836145478374
H         2.55022550807659   -1.22142781515374    3.57067448468970
H         2.49688642890165   -2.45113514041917    2.38025342960878
H         0.21727685449701   -3.08776615965114    2.60503638890368
H        -1.04890130401074   -2.07066299804621    2.17358267215120
H        -0.30323089856308   -1.72405879580156    3.70511983682847
H         0.15489250520147   -1.65819273240890   -0.03687356653527
H         1.40457991716910   -2.68289288293137    0.64185321743107
H         1.77481283794406   -0.75723773234609   -1.47409517649966
H         4.23683515396528   -0.18659888248946   -1.87570452900596
H         5.29172611618618   -1.57812453124325   -1.61842417465234
H         3.16129030337110   -3.32138677194148    0.36695850329851
H        -1.17443957573071    0.69762901285728    1.86892765071931
H         2.53006187765446    3.01821918967235    3.18832136427149
H         1.40379368802116    2.90531962351012    1.77064447781780
H         4.49460801011888    1.22045428389918    0.15976973614029
H         3.18040344708114    2.10630146571754   -0.58828383448675
