38
 energy: -53.115546813708 gnorm: 0.161466216666 xtb: 6.4.1 (79825abcba525fcdf90b791dcacef51065a7a4e7)
C         1.12251161279764    1.14951383038090   -0.06481937414407
C         2.50342173817135    0.34959691103455    0.34279448554183
C         3.17685625887726   -0.38054441236238    1.74359607453993
C         2.17241828808399   -1.27145321717989    2.55316889999534
C         0.81985980261678   -1.08458124906978    1.91168566644767
C        -0.24402999461042   -2.01630322437847    2.47641729664496
C         1.24770901468726   -1.67154632048672    0.37503131360780
C         2.38218705822663   -0.94222854405288   -0.46333553790382
C         3.58793502745424   -1.81211149009708   -0.78004473834416
N         4.30547278263217   -1.54199264805217   -1.91669828604926
N         4.19525996244081   -2.73327160647036   -0.09189386744565
C         0.58404591106362    0.47939924580507    2.35155568065442
N        -0.55176448472765    1.03618724044591    2.65248630662353
O         1.60247461733949    1.13659682926253    2.88542119256343
C         2.20074232516717    2.35369064826295    2.34261011649780
O         3.35292878578898    2.30578250500268    1.46533219706036
C         3.48168070955816    1.49809373117100    0.25745929438380
H         1.27207618542368    1.19004821314692   -1.14841799279187
H         1.03612404170627    2.15715923605331    0.37099269971886
H         0.22021431844419    0.57982502821287    0.12970909354949
H         3.51197311707237    0.45614500110490    2.36197521533866
H         3.96753796400963   -0.99370574191786    1.28193075400337
H         2.20860354360570   -1.03846029980283    3.62150035393737
H         2.58215186780180   -2.28115247072040    2.42247248524901
H        -0.01155807713355   -3.00914964145138    2.09471405255557
H        -1.27528842052641   -1.66454910922281    2.29949734402662
H         0.02027576896315   -2.02264449784193    3.53958142029491
H         0.34096810785880   -1.71806792005618   -0.23789291367781
H         1.50223616935053   -2.72592147116698    0.57902684401561
H         1.89442803015046   -0.73273063496739   -1.43091995538802
H         4.06208871716556   -1.09037316666047   -2.77723861041448
H         5.24948073979951   -1.91052113544176   -1.88475743290590
H         3.93777820821188   -2.81125186501077    0.88981708715247
H        -1.44276094506336    0.66874678331462    2.31948250639318
H         2.67285539915486    2.78522060570606    3.23138892736644
H         1.37401499472601    2.94796899864677    1.94163640445619
H         4.54719975676111    1.27724227976364    0.16479218273772
H         3.25507472757723    2.24243101056898   -0.51376479711713
