38
 energy: -53.139619219121 gnorm: 0.140370796681 xtb: 6.4.1 (79825abcba525fcdf90b791dcacef51065a7a4e7)
C         1.09494755226289    1.00681896324242   -0.01670804904088
C         2.53921599635931    0.30412101365210    0.34830311359498
C         3.34935973607989   -0.38159785325027    1.69823726853539
C         2.41527495259482   -1.31607896964345    2.54218805075571
C         1.01243867204336   -1.07865181960899    2.04067535934137
C        -0.12757489021321   -1.90659797302345    2.61839792465775
C         1.21601619517974   -1.66015937221484    0.45660002703443
C         2.34092035572604   -0.98864179678364   -0.44087341392293
C         3.55586144542499   -1.84353617831577   -0.76321323371291
N         4.49835351957295   -1.17372092409944   -1.50000500318604
N         3.67674603427463   -3.11307631380369   -0.50907566054796
C         0.63968448905386    0.47644756095951    2.41195555570310
N        -0.57819878422926    0.92632111018424    2.48274713679413
O         1.66249214888729    1.20110087192574    2.83957699951995
C         2.16096375505468    2.46956401193954    2.31382728012889
O         3.25868478833551    2.36199820820370    1.37420848098380
C         3.41984677701753    1.52211955854818    0.19246155144254
H         1.33732461165428    1.23870097063488   -1.05866901840775
H         0.79597924694362    1.97240170692301    0.42034131678432
H         0.26511215369061    0.30868240307062    0.00577781867224
H         3.74467514087796    0.44405233737919    2.29554182017810
H         4.19010126966407   -0.91712527913165    1.22851045580952
H         2.52370721343317   -1.06937966918638    3.60252245473231
H         2.73641300329551   -2.35186377052282    2.37343994277377
H         0.06214882608904   -2.97832831649059    2.64812220322887
H        -1.07743227132154   -1.80143680211539    2.06591476324884
H        -0.42146120166883   -1.56182696895510    3.61588450326160
H         0.22055052513717   -1.49532676855630    0.03010531186410
H         1.44112124563177   -2.73725084280409    0.54208029657839
H         1.88175036700922   -0.88195475097402   -1.43877051995219
H         4.22704759776320   -0.29100939002033   -1.88851376497998
H         5.28365494309878   -1.71947624156824   -1.83680953156380
H         2.87842739856143   -3.48282101430933    0.00289151121729
H        -1.33661102591504    0.29650717091873    2.22212484524878
H         2.56045572372917    2.99962115706341    3.18473612162993
H         1.42053829868807    3.11717206566511    1.83445405189687
H         4.46397820607253    1.20298518791738    0.21768468572752
H         3.35130702777943    2.09945969857047   -0.73606173774455
