38
 energy: -53.082236820319 gnorm: 0.151332429984 xtb: 6.4.1 (79825abcba525fcdf90b791dcacef51065a7a4e7)
C         1.27364214329601    1.14714855123266   -0.53315296810481
C         2.52118443238486    0.44119664150010    0.27814173389233
C         3.01936955631548   -0.21795070851874    1.78353267286491
C         2.22580575966511   -1.47258966916638    2.28767539789874
C         0.82379368595867   -1.09283799360184    1.88026022367878
C        -0.10846594129666   -2.18207185398339    2.39343731788042
C         1.00164123812994   -1.33866473494517    0.20788795354824
C         2.33399823035316   -0.85498685724558   -0.50813189213075
C         3.53573652775262   -1.78514922034704   -0.54624161365264
N         4.70176841840008   -1.25298589361310   -1.03304523565217
N         3.61659426185464   -3.00392913900762   -0.10018249646756
C         0.61948769548425    0.37679868139175    2.58279555245706
N         0.16844838640505    0.59215941977265    3.78313743835724
O         0.94073242330094    1.45437731860022    1.88297832018998
C         2.06347166295348    2.36772372634559    2.08081764917983
O         3.29404593511667    2.33882207796336    1.31642440784190
C         3.60578527079060    1.48807206386655    0.17321044041935
H         0.28587087840942    0.87525860046353   -0.14768916033745
H         1.29327427391530    0.90437474993098   -1.60712676291778
H         1.37854128650151    2.21784243481391   -0.39481334342563
H         3.09610422733781    0.40095043317612    2.68120656397043
H         4.04847293369443   -0.50590057313942    1.51462681073045
H         2.36566259016911   -1.48054300759514    3.37271179314626
H         2.69636257183127   -2.37893738191640    1.88572285798190
H         0.48811086071388   -3.07713944436375    2.22481140885824
H        -1.12948537908762   -2.39057521526598    2.02933401964570
H        -0.21270566927337   -2.07062656144837    3.47830123668498
H         0.12470372319355   -0.86533736014590   -0.24704197237722
H         0.87539151670618   -2.40578416221899   -0.04394998521399
H         2.13570051689831   -0.79680136825919   -1.59224920162151
H         4.86497357448197   -0.26502928784424   -1.06516136671001
H         5.41068173168718   -1.97078332745596   -1.13400688583122
H         2.73584406065890   -3.48755905931796    0.06265289537784
H        -0.33397952526000   -0.18308687201976    4.21480640209890
H         2.18292728596626    2.40813127815385    3.16853737770612
H         1.71579696954698    3.36378371973908    1.79028098564087
H         4.68278729225900    1.36610322694649    0.30694024217008
H         3.57946457169088    2.05918628768355   -0.76130046315485
