38
 energy: -53.131559694449 gnorm: 0.160575379509 xtb: 6.4.1 (79825abcba525fcdf90b791dcacef51065a7a4e7)
C         1.07156663823279    1.07474377112921   -0.05691160848646
C         2.46263703240528    0.32714256683883    0.41100346175522
C         3.19198690477776   -0.36568152957732    1.80273225023553
C         2.27603879925177   -1.30198596281442    2.66435592747104
C         0.94408088731795   -1.11618344194766    1.98083427582463
C        -0.17594120929002   -1.95713737833923    2.57852661761417
C         1.15866329640920   -1.74961095668967    0.41826794998827
C         2.25793293832199   -0.94956578265510   -0.40230369421539
C         3.52843203324444   -1.71287800783910   -0.73996590619864
N         4.45169227931472   -1.13246333205724   -1.57093837903781
N         3.85212565579171   -2.94202021284130   -0.46544257741223
C         0.65780240530101    0.46564368339421    2.31399547188298
N        -0.53652388811661    0.91477756823722    2.56399711162092
O         1.63985854390567    1.23159518102763    2.76455301902359
C         2.26924000934267    2.38264003217455    2.12201104691619
O         3.49916691834977    2.22506923271747    1.37241341022660
C         3.45207745325460    1.43785864382596    0.14523076677116
H         1.32432939710722    1.33643606346752   -1.08930043817379
H         0.79754184539989    2.02312927886723    0.43116582369605
H         0.21915730845525    0.40577658662128   -0.10598608170606
H         3.78922681425730    0.31526416867445    2.41458409665243
H         3.94626558418316   -0.97985399399901    1.28491461897201
H         2.23722024076022   -0.93771952009284    3.69524401057420
H         2.72602030237037   -2.30284337905946    2.68038119435463
H        -0.06537474138424   -3.04007213473992    2.55590081962292
H        -1.20190386291337   -1.81756765135430    2.19584334235484
H        -0.16033877306779   -1.67738373449400    3.63763480957032
H         0.22223665102780   -1.62183449677679   -0.13562532355333
H         1.38485032470481   -2.82385683766390    0.53202391074011
H         1.84637290893877   -0.73280102274509   -1.40312797590310
H         4.30012720637534   -0.14422812300893   -1.63531869643815
H         5.42890140126931   -1.39891747624054   -1.52567237830962
H         3.21494291603601   -3.44388019119446    0.14959310904833
H        -1.28155682878826    0.26513702066279    2.31365376274849
H         2.69130589483644    2.82567727449739    3.03009420570320
H         1.48741193969180    3.00018875718109    1.66945918160120
H         4.45826246344174    1.03687129233209    0.00560886428850
H         3.28448135459334    2.03360109321389   -0.75874784765538
