38
 energy: -53.122501235530 gnorm: 0.154779744463 xtb: 6.4.1 (79825abcba525fcdf90b791dcacef51065a7a4e7)
C         1.14605993058426    1.12134187588482   -0.08818440049297
C         2.57269522562724    0.39390079186316    0.29713378019973
C         3.32017881891295   -0.26327139883215    1.69651165826008
C         2.37094186048573   -1.25293291161714    2.45647319912155
C         0.93535360157130   -1.11495399612602    2.01388484765920
C        -0.00873433582803   -2.10725155487819    2.67941669634277
C         1.15145598566223   -1.54354629791451    0.38339476175001
C         2.33989209760331   -0.91231952088457   -0.45979926600470
C         3.48207297040393   -1.87646362070159   -0.73670760995600
N         4.69073701594544   -1.23875178648125   -0.84743587546249
N         3.45897767729077   -3.17636087565316   -0.76249302471587
C         0.54796630779266    0.44286796473507    2.35776069118338
N        -0.63557823646215    0.91159265813131    2.62263199245834
O         1.61850480121081    1.13317983717872    2.72043809574373
C         2.17205748535653    2.36498262256533    2.16354782806823
O         3.27824915823362    2.46137768029157    1.23269159334541
C         3.49259474675881    1.57533716772235    0.09388374062965
H         1.17748873347607    1.10390937266658   -1.18221680282745
H         0.91536856943328    2.13775095935482    0.26739724155903
H         0.34208759062458    0.48660170264433    0.26855142922652
H         3.77269638249654    0.49314737537873    2.34288903818898
H         4.11449961230405   -0.87680630623662    1.24163955762188
H         2.43317768332628   -1.34013607143641    3.54525667653015
H         2.70812538050132   -2.24672340983655    2.13531365505545
H         0.26789171821691   -3.12584123698710    2.41213848609803
H        -1.06438241401583   -2.01537244713938    2.37007719798598
H         0.08726561407316   -1.88501837661720    3.74787919723249
H         0.16395617237577   -1.31876715024614   -0.03414312736980
H         1.28144218654606   -2.63719941864065    0.45503024855319
H         1.97988062367093   -0.77923607846664   -1.49454482620603
H         4.57245641630317   -0.26462480297266   -1.04945553101678
H         5.50941488198931   -1.80913182932408   -1.02748487868723
H         2.57972277568270   -3.56849301694434   -0.43192173671667
H        -1.42224197547533    0.29739555362807    2.41358466071849
H         2.69016883202940    2.78385730570537    3.03253647010269
H         1.28742309399198    2.90884821645883    1.81850151903735
H         4.57988942475706    1.50104871945315    0.02342175283161
H         3.24347351400702    2.24938520611453   -0.73302175304130
