38
 energy: -53.137382176484 gnorm: 0.138897661046 xtb: 6.4.1 (79825abcba525fcdf90b791dcacef51065a7a4e7)
C         1.17877331287242    1.08344973326852   -0.18203997452459
C         2.52447762893678    0.29527248914535    0.34785193110567
C         3.25276757605445   -0.30628818364755    1.78193141991657
C         2.42636305294863   -1.30782943779308    2.66056271720213
C         1.04219087319252   -1.12003634366614    2.09079310491959
C         0.07816663668421   -2.04438465227921    2.82231659906408
C         1.13474256979556   -1.64066133060738    0.47546857129613
C         2.26441838090301   -0.99181132193583   -0.43262285800573
C         3.44332992605139   -1.86992254806987   -0.81981462212017
N         4.48754485405077   -1.16737837331737   -1.36373812015894
N         3.59844863717036   -3.16033596270756   -0.77855255301668
C         0.61940391913154    0.45618505779532    2.26941584470986
N        -0.56203515061950    0.97786870052460    2.11879960764724
O         1.55223039362730    1.24908655285757    2.77464851621571
C         2.09412043453782    2.49320994002327    2.23391045126181
O         3.34818890620204    2.26376265827609    1.54535283367044
C         3.47136094971261    1.47266406631106    0.32597314714158
H         1.33660004133638    1.38010930467603   -1.22380884533364
H         1.00666454706894    2.04945458636472    0.31791745983509
H         0.24078158403386    0.53907656073617   -0.16316075270023
H         3.59397977118814    0.51563238898599    2.41656993751669
H         4.16382320308387   -0.78986324144456    1.39410150447313
H         2.52336931546865   -1.04628286031661    3.71844282572630
H         2.75177985508322   -2.33189202591071    2.43727937663882
H         0.50793136612663   -3.04470909045805    2.83405793568029
H        -0.87478717501885   -2.00574899650022    2.26651817401192
H        -0.08993301349008   -1.79289391183605    3.87526987689634
H         0.16909287394607   -1.52786167788349   -0.02932478887638
H         1.26170661429129   -2.73691296940667    0.49022245634858
H         1.75532148793825   -0.81202070105481   -1.39517858756589
H         4.47538443971737   -0.16727987928068   -1.30559396137713
H         5.29302406352118   -1.71768587265875   -1.64005204133686
H         2.78385465538613   -3.62707844317062   -0.38520502691369
H        -1.28245197816288    0.32710379931082    1.80689681649945
H         2.46556676983998    3.01625989535525    3.12131283765056
H         1.36600888846087    3.13407294251187    1.72738015985667
H         4.54249059765808    1.26013589554597    0.31160490777027
H         3.15778099593702    2.18603901942780   -0.44405194144027
