38
 energy: -53.121193520819 gnorm: 0.153016867160 xtb: 6.4.1 (79825abcba525fcdf90b791dcacef51065a7a4e7)
C         1.13461982496410    1.15178500941464   -0.09849916637923
C         2.46367616868853    0.29550359583992    0.36336691862055
C         3.25087335883021   -0.52321391650981    1.65134506108104
C         2.33317544575248   -1.40646165880459    2.56552569842746
C         0.95187313449235   -1.16394815512349    2.00962335887274
C        -0.15829831645206   -1.90943195751387    2.73808913550313
C         1.03473604419838   -1.60492069952925    0.37024344845767
C         2.18819341116604   -0.93832023140860   -0.49403876106364
C         3.43508390562533   -1.73868740751322   -0.83390006692003
N         4.20870998944761   -1.02420347221345   -1.71186436098475
N         3.92716471013069   -2.87499239648269   -0.43691316350728
C         0.74253051319233    0.43076863937291    2.33853495430742
N        -0.38669136286860    1.06056620664254    2.47583151543328
O         1.81912788374393    0.99544752984365    2.86407651840229
C         2.26836734796278    2.30809391950577    2.40687979451805
O         3.26049928466855    2.32650239858195    1.35104802239838
C         3.49544001592125    1.39406845633329    0.25411367458317
H         1.29948918348053    1.15662124632628   -1.18062358951136
H         0.97013725582188    2.11088339427048    0.41707818920482
H         0.18850619216671    0.63114038621273    0.00311397641983
H         3.77450380975726    0.25535325271530    2.21204957561620
H         4.02019999905272   -1.09745158094358    1.11035813135618
H         2.51134656775903   -1.19131434154683    3.62330347894539
H         2.70522073650247   -2.43846926681558    2.53392944989153
H        -0.12167047411843   -2.98324711499234    2.56183941482485
H        -1.13573364989013   -1.50822948102722    2.41842945694143
H        -0.17168530571828   -1.77544236855082    3.82532566245609
H         0.06069872217969   -1.51659873973157   -0.12318329777371
H         1.28808722806286   -2.67879741222797    0.39683656455222
H         1.65335341273784   -0.71359473363647   -1.43290108988217
H         4.20010270363783   -0.05057756910557   -1.94788157765280
H         5.11096887577764   -1.48667832388382   -1.71737863232168
H         3.30227135922140   -3.46755607447410    0.10577529007661
H        -1.12150767556491    0.43459340464368    2.14722573480486
H         2.88339876137275    2.61787795294391    3.25823568273876
H         1.50100311095877    3.02010565601845    2.08810688308232
H         4.49184159372360    1.01497722117290    0.49110973863444
H         3.40256631599941    2.12195381839964   -0.55935558007222
