38
 energy: -53.127632878964 gnorm: 0.167736725562 xtb: 6.4.1 (79825abcba525fcdf90b791dcacef51065a7a4e7)
C         1.07496437068534    1.01151157208857   -0.07487628625594
C         2.53268366615941    0.36410794772359    0.33603965274807
C         3.33919777408670   -0.38887658047779    1.65187200043745
C         2.42095330826027   -1.24652585875172    2.58957508812630
C         1.01582255441512   -1.13142900733973    2.05273567870655
C         0.01802686810155   -2.10713253860649    2.66207590074172
C         1.10068294097792   -1.67127873290710    0.44331015519882
C         2.27509062829300   -0.96947087935438   -0.36293802084545
C         3.49365755520593   -1.82737213082646   -0.66282018702476
N         4.37258788182413   -1.24806045364887   -1.54127643002477
N         3.73618150483801   -3.06952162102124   -0.36419344378498
C         0.64843901294717    0.44390546816709    2.33287741526933
N        -0.54471318824849    0.96060615706584    2.33962654965777
O         1.67955863010642    1.16361748743951    2.74871991407574
C         2.20975482438498    2.44414421336397    2.28716953264229
O         3.37627876319393    2.30680789191200    1.43875571592831
C         3.37440958281096    1.60649160085644    0.15912735137910
H         1.32356869802037    1.28824698001121   -1.10434797932259
H         0.90160053022918    2.00740923044007    0.36201852179706
H         0.11414771810050    0.50970533968080   -0.03551997190730
H         3.67983721307616    0.45821041452328    2.25283259428033
H         4.14530848324906   -0.89669699054879    1.09817245477986
H         2.37307019755997   -0.68482405793775    3.52719199217810
H         2.69763137504443   -2.30496193210671    2.67685652214451
H         0.49138464453505   -3.02246479545700    3.01362081615484
H        -0.82868727813794   -2.22609498383848    1.96390066848754
H        -0.51405117421687   -1.59027627347606    3.46828198321235
H         0.12956160467589   -1.62316176665646   -0.06129615736627
H         1.29657349526266   -2.75412676675320    0.52799916802717
H         1.97555537534339   -0.77336348792928   -1.40689125991317
H         4.26772727035426   -0.26387630445270   -1.69655498794742
H         5.27565244927717   -1.68317133083354   -1.69338624298541
H         2.97119681005400   -3.54694468027748    0.10803511531913
H        -1.36151192128524    0.40046704664944    2.09701016846658
H         2.65020433141643    2.94664312363179    3.15465768940113
H         1.43242862565161    3.07650106277159    1.84749517770666
H         4.44582636904862    1.40981329261532    0.08117156065341
H         2.99827260215922    2.25057365611835   -0.64327785846758
