38
 energy: -53.124366165002 gnorm: 0.158383613649 xtb: 6.4.1 (79825abcba525fcdf90b791dcacef51065a7a4e7)
C         1.01834666249148    1.18931342401892   -0.13991326090071
C         2.42179536510951    0.41929041328232    0.24780466661573
C         3.24545763262069   -0.31959136856937    1.56100672694799
C         2.44965744786721   -1.43528991746126    2.32254535977051
C         1.00963608589083   -1.17780139381894    1.95393388619954
C        -0.05192768517251   -1.97612961738273    2.69867783043299
C         1.02753549667252   -1.55131400803833    0.29590570340337
C         2.19501130455606   -0.87075205814464   -0.53814433636063
C         3.36068914362234   -1.81239866239892   -0.79373395188316
N         4.46928474331860   -1.22439847257524   -1.34607213735726
N         3.52472484766338   -3.05748533505944   -0.45641717393153
C         0.77120062635641    0.38074997578262    2.41131222373860
N        -0.38154411421331    0.96203232738129    2.56599817398700
O         1.76375143724108    1.05743615203017    2.96903685414768
C         2.30598086442602    2.30446994404919    2.43538955742082
O         3.46712540440571    2.18158684536395    1.57743357248708
C         3.36063388780480    1.60329689380628    0.24246711866826
H         1.14102474377405    1.30371838018967   -1.22160644934979
H         0.92382207452761    2.16963036334386    0.35282200025089
H         0.12722698418841    0.61458392939266    0.08838212881468
H         3.53552143223047    0.42550422993740    2.30628571913181
H         4.07198655449337   -0.81549083116810    1.02695345220409
H         2.56791376191647   -1.32067723763191    3.40412130942665
H         2.89952720106254   -2.40576347545107    2.07707845756374
H         0.10421525572699   -3.03517016643668    2.49983855564538
H        -1.06260756727168   -1.67337323100693    2.37403908689787
H         0.10072060520133   -1.78876796148835    3.76723283651427
H         0.06603052825141   -1.41961634688605   -0.21221174285141
H         1.15533081392913   -2.64756744447925    0.29450670967003
H         2.00701897541978   -0.54875783896241   -1.57689187084822
H         4.45301594311789   -0.29736281019188   -1.72563217121564
H         5.16514740780218   -1.91714374476043   -1.59878467408083
H         2.77768883022641   -3.50199639879677    0.07318765216756
H        -1.07507172375492    0.26141055363206    2.30536949924493
H         2.74753258641546    2.95475295893920    3.19775476083050
H         1.46073629826682    2.88673002215379    2.05596950907950
H         4.42458554624583    1.42612433695198    0.07126506973583
H         3.17433043298147    2.42450523632363   -0.45830582200989
