38
 energy: -53.124699642255 gnorm: 0.144967160233 xtb: 6.4.1 (79825abcba525fcdf90b791dcacef51065a7a4e7)
C         1.12672758097470    1.13168261492127   -0.03222225392323
C         2.51198990748982    0.32827306828691    0.35314806209704
C         3.23872737316619   -0.37921223988843    1.73885462011713
C         2.33394398125154   -1.32322519286537    2.60385683178263
C         0.96557545328836   -1.19345727785965    1.98211401123845
C        -0.19463565488213   -1.96724284109496    2.59371455543869
C         1.10010248115628   -1.60177029895652    0.33770758825081
C         2.32136401113473   -0.95855662413956   -0.44753139491311
C         3.61073309240538   -1.73663544095261   -0.65477512664438
N         4.31522399155806   -1.23070976719636   -1.71663090545670
N         3.92679621819769   -2.88677677442896   -0.13688501238185
C         0.65301828326068    0.37626407544313    2.34736967063630
N        -0.53556267640194    0.90343583534207    2.34575965273975
O         1.63675897327154    1.10307311675792    2.85542570240796
C         2.18727475558909    2.32596721316052    2.27633342406344
O         3.32296549743770    2.30816740885262    1.37670290472135
C         3.54242805872171    1.42715831548542    0.23496987222926
H         1.17727853649498    1.12502960555100   -1.12565670426763
H         1.01624334191075    2.20569993241143    0.18462853752142
H         0.16055089217966    0.72368820061677    0.24449098947061
H         3.78370219993402    0.28861310928436    2.41098330590543
H         4.01064959722988   -0.96867105528006    1.21832256193625
H         2.35064768370181   -0.99794875561575    3.64829131019083
H         2.81492883182604   -2.30894085598796    2.64224852227494
H        -0.19010105725219   -3.00801985503675    2.27395339114873
H        -1.10745690565050   -1.41477353850998    2.31076472805200
H        -0.03626085308960   -1.88838384904585    3.67487799230403
H         0.17777915801149   -1.37436322514182   -0.20784271984234
H         1.29558230105160   -2.68739162144307    0.37402830077762
H         1.88797389821129   -0.69442080156001   -1.42754319342781
H         4.10600738819249   -0.30081212897472   -2.02524783878198
H         4.94411169639906   -1.82186348213374   -2.24862904746185
H         3.49756405494901   -3.03473897975997    0.77415895531273
H        -1.25878235456182    0.34178032766556    1.89712271596574
H         2.66891567848708    2.77674681875468    3.15032221107145
H         1.31641193849535    2.95326641392294    2.06298297973513
H         4.58357582286211    1.09868837834326    0.26346954702868
H         3.47135660675397    1.99742935773574   -0.69772227157956
