38
 energy: -53.120113571857 gnorm: 0.141463171739 xtb: 6.4.1 (79825abcba525fcdf90b791dcacef51065a7a4e7)
C         1.08647221184995    1.07626865721327   -0.07355539000891
C         2.53472362010783    0.39789597723673    0.32053500564605
C         3.29584486710584   -0.42783183886193    1.61966296638926
C         2.37830568212989   -1.30757120118318    2.53737901453859
C         0.99941448689917   -1.09484261755430    1.96358298897502
C        -0.08987120860519   -2.03143515601424    2.46869703301033
C         1.15412675479539   -1.45773998451191    0.31032586554253
C         2.35270698357587   -0.85261436012332   -0.53763181004600
C         3.49269423128706   -1.85518180650365   -0.61584172982643
N         4.56838455578453   -1.33318731470135   -1.28682457751824
N         3.66349773868692   -3.09018379369622   -0.24634559900697
C         0.69792854703326    0.45199403119320    2.42350837123980
N        -0.52655074110160    0.88065851714092    2.51031017056537
O         1.76081629176565    1.11606033285701    2.85176485734384
C         2.09094295746434    2.42533078720860    2.29434874737000
O         3.18708943698960    2.50274632451334    1.34993618400898
C         3.44089648158478    1.60367365193931    0.22960344428579
H         0.81307558172733    0.88659804134441   -1.11637746814004
H         1.17465313426924    2.17386020805153   -0.08971551287096
H         0.25882739504122    0.89273063994965    0.60308698635379
H         3.86671103111472    0.31618106919142    2.18118041117013
H         4.02912543792309   -1.10450849828319    1.15202258275800
H         2.45307301116711   -1.10438136887321    3.60978326620693
H         2.65707599274868   -2.35957318981850    2.39583521028245
H         0.42511769385529   -2.97676420968263    2.63186555686736
H        -0.78398616140484   -2.26692107406757    1.64330235434029
H        -0.68587493152813   -1.74093286552813    3.34082297322671
H         0.16971130848657   -1.19068628083040   -0.08920883665244
H         1.36021298101426   -2.54146912224351    0.34445547687182
H         1.95381863374073   -0.53811179057723   -1.51742466328808
H         4.30950401212808   -0.74803795102094   -2.05773748205973
H         5.31971564031380   -2.00766583145960   -1.37937088807976
H         3.00448997968806   -3.44211305162274    0.44502169829870
H        -1.16272676884482    0.11068367637193    2.30488982146683
H         2.54877715093863    2.99094493703119    3.11258166730846
H         1.11721101693091    2.77489593723761    1.93787285892623
H         4.52764847790465    1.49726704747202    0.21113424142494
H         3.25482585422818    2.21181058965336   -0.66242908043382
