38
 energy: -53.122965489535 gnorm: 0.169386071339 xtb: 6.4.1 (79825abcba525fcdf90b791dcacef51065a7a4e7)
C         1.14500581461869    1.06287776493472   -0.19065972624214
C         2.54900975805155    0.37283969068535    0.32465501218819
C         3.23939394067390   -0.29688265930430    1.74722561502456
C         2.45734539443788   -1.36783177769081    2.58358099704513
C         1.03169729604140   -1.16002384015340    2.13616658658069
C        -0.17862671070790   -1.93974948185802    2.63218360320403
C         1.18174310021826   -1.60400622970208    0.50238096024594
C         2.28102689224380   -0.93079239491417   -0.42506829355054
C         3.47379686587704   -1.83574362913861   -0.68811257860552
N         4.37832029213151   -1.20899265258052   -1.50593071093700
N         3.75574663822012   -3.03014440316688   -0.25817970857794
C         0.69204272645828    0.43062335861147    2.35888864510008
N        -0.55612045000666    0.78186692625300    2.45560483222652
O         1.70648675342164    1.15835008898918    2.80096918569991
C         2.12596521359740    2.39765724849317    2.15132230973699
O         3.28798968491878    2.39949763597889    1.28579292479491
C         3.53792899004931    1.50371816014077    0.16195813506615
H         1.29149843002890    1.45456100270759   -1.20225386902070
H         0.84149180807092    1.99424476339020    0.31250922987919
H         0.22248541573505    0.50147246245790   -0.08913507208087
H         3.61200705889858    0.58332893062445    2.27744467926957
H         4.04537835028509   -0.89136331879264    1.28759411243014
H         2.51473591864072   -1.19400369533767    3.66219922526990
H         2.89547908414787   -2.34865089926315    2.35888465577333
H         0.04506606769984   -2.99850859994811    2.51187052738677
H        -1.10059550657501   -1.69189529717135    2.07804696779864
H        -0.34184884848878   -1.80460562009223    3.70703725049784
H         0.23261508766949   -1.46493998445047   -0.02661435328938
H         1.35406575006672   -2.69128502033294    0.58134267397832
H         1.81082355075423   -0.88801814540338   -1.42261379444597
H         4.17180017038044   -0.30163520801081   -1.87711466019052
H         5.21216194113217   -1.63639751936566   -1.89325185095942
H         3.13339690061579   -3.38217477779641    0.46631293646317
H        -1.24061211033811    0.04963944366550    2.26827411004522
H         2.60201257699026    2.91407658702370    2.99139766862378
H         1.28195751399790    3.00486294216472    1.81018157831266
H         4.60014750708394    1.28327795915157    0.28762169470378
H         3.37999997239922    2.17302802703772   -0.69083584519664
