38
 energy: -53.130668316706 gnorm: 0.159568384075 xtb: 6.4.1 (79825abcba525fcdf90b791dcacef51065a7a4e7)
C         1.26356774392450    1.33217950044540    0.09007984623982
C         2.58116169016303    0.41120047508159    0.44878964460071
C         3.28317975354789   -0.37234732319694    1.80602541776632
C         2.30159395938996   -1.36992753252486    2.51266911921394
C         0.92699454654291   -1.19496604923200    1.91626218891138
C        -0.21936905714705   -2.01885357837768    2.48718160887233
C         1.06604830627408   -1.52137016090337    0.25403056678625
C         2.30925501837040   -0.80833099999584   -0.42994023188870
C         3.49546165908011   -1.68242497427469   -0.80370855524574
N         3.78212835433226   -1.65404695723207   -2.14416475058979
N         4.07008561372503   -2.68948126423650   -0.21500141301545
C         0.68025218781468    0.37176230478566    2.34006557806758
N        -0.47601901976867    0.95978539201604    2.42896505259218
O         1.65576629312341    1.01159650050139    2.96704445619002
C         2.29582401609675    2.23719485332817    2.49574808978838
O         3.45998041274331    2.19447694550445    1.63414467675040
C         3.58676120739342    1.53379102562182    0.33980472430147
H         1.52056116854779    1.56834003456111   -0.94740805379183
H         1.14303406400309    2.24343394379373    0.69657074143435
H         0.33209360654322    0.78947678874881   -0.02973983515748
H         3.66262522038228    0.32766886901855    2.55485363454641
H         4.08438691472395   -0.95971966987244    1.32922352655756
H         2.33584538960233   -1.26905569169020    3.60151202094494
H         2.64808972662547   -2.39799413604970    2.34691184557055
H        -0.03853151505789   -3.07030581473673    2.26985571873236
H        -1.13788662033641   -1.76789079146988    1.92872951642447
H        -0.24514457083437   -1.79251080965031    3.55877867413959
H         0.12155053045339   -1.17742806393286   -0.18145447646628
H         1.24571414133370   -2.60734529082544    0.17351091959414
H         1.87945046145288   -0.50659320149815   -1.40063080816889
H         3.86835590149828   -0.77603327530362   -2.61890931793949
H         4.54346800659262   -2.26826650695168   -2.41077451796656
H         3.79623302379419   -2.88039290931293    0.74660748626484
H        -1.26304795828897    0.43422344356788    2.04929571529538
H         2.74276414217893    2.63475620082171    3.41293189410380
H         1.49118361158672    2.86291826165060    2.09769182493641
H         4.65128888316844    1.29984312017787    0.27093820233034
H         3.30014035730381    2.27103602734202   -0.41814853784783
