38
 energy: -53.129972002371 gnorm: 0.146129979579 xtb: 6.4.1 (79825abcba525fcdf90b791dcacef51065a7a4e7)
C         1.24914027504676    1.33507953625878   -0.04376530425729
C         2.48513493724798    0.34342653390910    0.40553462783753
C         3.20615919471310   -0.49178631606949    1.72136478469426
C         2.28612771380185   -1.45007375414088    2.55398086652440
C         0.90483164111747   -1.12887055885371    2.03950446763689
C        -0.12075817322726   -2.08093892794678    2.64002132287582
C         1.05881701713997   -1.52479112926385    0.39377516006494
C         2.23271707188474   -0.88656805899515   -0.46438205016046
C         3.45400181618720   -1.69386330825821   -0.87373177365355
N         4.40583314866640   -1.01231163843300   -1.58739159797396
N         3.70840838563326   -2.92055399787363   -0.52525162203492
C         0.60025808818157    0.45457432840452    2.34783229006736
N        -0.57947332664889    0.98253250937909    2.48971710892191
O         1.67257506244821    1.05868917693465    2.83701489371247
C         2.36039782619784    2.25217587806216    2.35083097451800
O         3.48584646615252    2.17292914588212    1.44169364289544
C         3.57849296364045    1.37099786554774    0.22669651462540
H         1.22702074297159    1.34570890005288   -1.13811273631916
H         1.33354320407972    2.39937945218259    0.22620890207657
H         0.30696453537949    0.94996706243316    0.33109510015367
H         3.73518732835843    0.23889402192369    2.33860113849510
H         4.05599662042268   -1.04947238465223    1.29587467624285
H         2.30365924823278   -1.28689055350454    3.63564211121481
H         2.64535729467727   -2.45084756189480    2.28220590680560
H         0.17924094851112   -3.11982541204759    2.51274226193934
H        -1.14177314928335   -2.04333357076566    2.22212203009515
H        -0.14361043330717   -1.88577597660968    3.71779907735138
H         0.10796772150416   -1.29428188425825   -0.09894235088483
H         1.11252530107373   -2.61582918143362    0.55143491757913
H         1.73785051999651   -0.62169254741278   -1.41462723752042
H         4.21283841916158   -0.17476681422137   -2.10217049930853
H         5.05684054578185   -1.60346255875809   -2.09208402509110
H         3.00619024637401   -3.28026072665279    0.11789294340482
H        -1.30966965538917    0.29037226996735    2.32386705132825
H         2.81334156524565    2.67408227180852    3.25408818800412
H         1.60568080431236    2.96632229688682    2.00757908582667
H         4.60774313787947    1.00687119498853    0.25406903546169
H         3.33028562573766    2.14992597736241   -0.50257639446646
