38
 energy: -53.116325373722 gnorm: 0.154610260663 xtb: 6.4.1 (79825abcba525fcdf90b791dcacef51065a7a4e7)
C         1.12953456154979    1.04120498502140   -0.08074022837944
C         2.56237482860681    0.35143595118195    0.34834760899674
C         3.31582070198501   -0.43107932250893    1.67833055900634
C         2.44591224348531   -1.21586931190618    2.72014927104788
C         1.08604532046788   -1.09436693210259    2.07840522755108
C        -0.03105858934499   -2.00227099759284    2.57507235161994
C         1.19394759183589   -1.65049384071243    0.47591668430359
C         2.29099097331199   -0.93796131319097   -0.42441495810659
C         3.45322666943588   -1.83254285306458   -0.82411647889151
N         4.45730578854275   -1.17986197934706   -1.49167825424009
N         3.64754729734319   -3.11112657655610   -0.68849081495920
C         0.62312443960203    0.44672858556550    2.40376302519407
N        -0.59230823874155    0.90558026720994    2.45682809921819
O         1.63393021747099    1.20742496451194    2.79584819024193
C         2.13578868942837    2.47030738486087    2.25998295993100
O         3.32135531073428    2.25348561720099    1.45570347443474
C         3.41947341923375    1.58222159840889    0.16431947983071
H         1.10149952218104    1.02811644054498   -1.17492544455833
H         1.10347666580113    2.02328496761879    0.41683804698707
H         0.17815916939046    0.53721752500325    0.05120129311712
H         3.85789109721032    0.32027397096017    2.25830741734540
H         3.99907983089874   -1.13956970513241    1.18287362058595
H         2.55779138758940   -0.72034380184813    3.68909957076999
H         2.80128138043804   -2.24997178974973    2.81396062799901
H         0.18358265486730   -3.06909585344315    2.53903866973862
H        -0.95901656229338   -1.88765621981323    1.98831599196741
H        -0.22698857466560   -1.81059375221322    3.63577352151222
H         0.18908020933195   -1.40259982829330    0.11701620543175
H         1.23133753969599   -2.75071216722751    0.39700642364264
H         1.70075017272266   -0.69232755291456   -1.32402471171719
H         4.78275451295581   -0.31628666816422   -1.10174693590258
H         5.29107257273056   -1.75282691060739   -1.55897336161414
H         2.93268454773654   -3.73436504042319   -0.31878926355608
H        -1.38873923370700    0.29968997936373    2.26093695407071
H         2.42760749740004    3.18130217925802    3.03996040412016
H         1.36535232344789    3.00129609795387    1.69261751658908
H         4.48903365693251    1.43404410264310    0.00068046885122
H         3.06535621556088    2.21809819135463   -0.65448258296946
