38
 energy: -53.131913652727 gnorm: 0.146786699889 xtb: 6.4.1 (79825abcba525fcdf90b791dcacef51065a7a4e7)
C         1.13984422811375    1.28443730874163    0.03617204467386
C         2.53526868909490    0.45025624526812    0.30048513085064
C         3.30284722846017   -0.36832395008889    1.60033708790462
C         2.49141565556202   -1.41843334972460    2.43512527313491
C         1.05918471854129   -1.15666417163361    2.04012183926922
C        -0.01135282015922   -2.09872141987318    2.57431904427402
C         1.09148068741641   -1.40983970318430    0.35972049761352
C         2.27677279581958   -0.81571149063096   -0.51429215086680
C         3.36374045295876   -1.84662862507929   -0.77224639964676
N         4.41995879389408   -1.30585156639494   -1.45910074190036
N         3.34928753529176   -3.10815222245003   -0.45715836097781
C         0.71862489561006    0.38435587914829    2.49223356091758
N        -0.48032682524920    0.83793563480862    2.70998922045543
O         1.76954712805899    1.09430951246632    2.87386998431941
C         2.17361036677171    2.36457280462232    2.27633375913741
O         3.33657252085666    2.29503925396062    1.41486438063513
C         3.53061140569235    1.57837643502068    0.15922172556571
H         1.01494919346912    1.16816416458862   -1.04506814345436
H         1.22739651164220    2.37147750133650    0.18921599317930
H         0.19480694691732    0.96679421093610    0.46341254953864
H         3.83134676336314    0.36881770006759    2.21030074387142
H         4.04929623655683   -0.98144670985721    1.07007904268927
H         2.47045316363557   -1.11154063378011    3.48503221978846
H         2.96890984481402   -2.39909294642435    2.31362725954549
H         0.52116209786178   -3.03354445472487    2.74170578193608
H        -0.71797025089952   -2.23527094654818    1.73731748881959
H        -0.54198889842611   -1.75409542806920    3.46867577516406
H         0.10141893005244   -1.12544986888332   -0.01299866480041
H         1.04076711924891   -2.51223294195814    0.34351889701432
H         1.89442158368018   -0.51020005058745   -1.50347774877964
H         4.25046695893044   -0.41808180808558   -1.89137726049997
H         5.21495277214342   -1.88990699068314   -1.69329791649936
H         2.57207887231200   -3.38996644424960    0.13669482731201
H        -1.19861722920927    0.12303567044868    2.59704830003656
H         2.64862452878265    2.86306294600550    3.12774773314614
H         1.25721849752997    2.82584919895292    1.89570955952029
H         4.57405780548100    1.26433053092213    0.23194156947115
H         3.34831639429708    2.21845958528239   -0.71097189406958
