38
 energy: -53.127700298846 gnorm: 0.159673370905 xtb: 6.4.1 (79825abcba525fcdf90b791dcacef51065a7a4e7)
C         1.07584479902131    1.19560069273779    0.05434580357868
C         2.43957183469729    0.33914124616747    0.40025716189630
C         3.22728440032826   -0.47498410944945    1.69082846016367
C         2.27856641486590   -1.37394285755246    2.55675549115271
C         0.91786947125014   -1.11870649137287    1.95742710742071
C        -0.18183166868286   -1.96991721525026    2.57790017303297
C         1.13920255764545   -1.63469303828000    0.35316433043900
C         2.24000506124010   -0.87590210912083   -0.50373355064586
C         3.45078149645355   -1.70931659773089   -0.89138020193982
N         4.49804690274768   -1.09306479883996   -1.52641939950845
N         3.59668079142856   -2.97396904615832   -0.62624112478982
C         0.77082827665695    0.45116354230414    2.41460949193141
N        -0.41972966922539    0.96712620656843    2.49822557824108
O         1.81441449893247    1.09121458094793    2.91996135738362
C         2.32998831440834    2.34061782392443    2.36583082334654
O         3.50054330197750    2.18046885059971    1.52702291482808
C         3.44619251271960    1.45748948331878    0.26122593662278
H         1.25900876011391    1.66193092053465   -0.91888882183112
H         0.78105466812738    2.10907981558032    0.59415956463304
H         0.26067994367026    0.48808245514907   -0.05266476057435
H         3.71578870518458    0.24979005825295    2.34719054211735
H         4.02634250594995   -1.00934699081793    1.15208762916085
H         2.41481369631557   -1.12847712182692    3.61416288793517
H         2.63617093558386   -2.40887911192351    2.48271711008666
H         0.12562047968415   -3.00830943778438    2.46520888321964
H        -1.12086016968649   -1.78685352792712    2.02722901340314
H        -0.41860845503336   -1.73273077042698    3.62092223575604
H         0.12581196027307   -1.66363780404786   -0.06183099267147
H         1.56556020551709   -2.61125861302998    0.64064311652059
H         1.89801449044868   -0.60812900039773   -1.51830629262078
H         4.26768916211658   -0.15596561484143   -1.79568887042784
H         5.09539515179724   -1.74491637294360   -2.02265430270098
H         2.77723428853071   -3.40633684698380   -0.20469671809024
H        -1.18633428979905    0.37962120443064    2.17121802398098
H         2.81646995251956    2.83678258035988    3.21211256169495
H         1.42837141066771    2.77942207999505    1.92769552657578
H         4.47787342534707    1.11747543953362    0.14845030397527
H         3.20340545434827    2.21934169437925   -0.48764688458437
