38
 energy: -53.125502398722 gnorm: 0.161939526202 xtb: 6.4.1 (79825abcba525fcdf90b791dcacef51065a7a4e7)
C         1.11323476514489    1.04768974778208   -0.17307408299012
C         2.52058957867780    0.34877732262237    0.32068978758193
C         3.34486033501075   -0.32765168839684    1.66675330686672
C         2.42672056737390   -1.25895259426756    2.53146150604047
C         1.01683711418265   -1.12960855798709    2.01056317382761
C         0.01893128594019   -1.96500207046695    2.80125324405006
C         1.14456512818569   -1.70201167593893    0.41527956779637
C         2.27621029368609   -0.96467789995615   -0.41989823348208
C         3.50415292703795   -1.81505536364661   -0.70246559747873
N         4.51692245143006   -1.15815542566824   -1.35253196701739
N         3.62339492590241   -3.10976153590891   -0.68128907636429
C         0.62389541112719    0.44311804736833    2.26990209223057
N        -0.53378965376087    0.98675238002672    2.50413354504014
O         1.66206377387757    1.13655912549995    2.71201521525203
C         2.06813058391112    2.44818735735749    2.21339049039769
O         3.23888634508213    2.35672763072400    1.36461993748291
C         3.44618193812726    1.53457847953680    0.17760920644240
H         1.33260566110474    1.31011991628116   -1.21288434313770
H         0.87055069789605    2.03850032360826    0.24182721035041
H         0.25777842127674    0.41207912991485    0.02871949988524
H         3.67038479430706    0.43761268426253    2.37608362903845
H         4.14257924537808   -0.95693256156955    1.24022152964080
H         2.37535491035637   -0.89635136698041    3.56238782958725
H         2.64208534884086   -2.33477662046066    2.50545360240758
H         0.23242670736240   -3.02847858212785    2.89570942627091
H        -1.02989136731145   -1.96708932018064    2.45702621430373
H         0.09151052859129   -1.64223281481119    3.84565161510390
H         0.23086467015287   -1.67156250961710   -0.18824653416717
H         1.33264781849858   -2.76276233331275    0.65515069370382
H         1.91052798005544   -0.94303941493728   -1.46096791253412
H         4.85123237819002   -0.30009013937781   -0.95796073298249
H         5.21767644477555   -1.81710334548599   -1.67302529400371
H         2.83278637048956   -3.57993201989314   -0.24538541163208
H        -1.36638451197375    0.49450887433262    2.18123905943952
H         2.48432855599803    2.93924250218855    3.09921255354436
H         1.23640935137266    3.03028342725112    1.80494378511397
H         4.49194897922287    1.22081721990425    0.20248025963030
H         3.12679676901749    2.24358436061308   -0.59406341055770
