38
 energy: -53.128047555666 gnorm: 0.149578291588 xtb: 6.4.1 (79825abcba525fcdf90b791dcacef51065a7a4e7)
C         1.14570991697313    1.14557973995057   -0.02210565916060
C         2.55773842204871    0.39156294043611    0.36591893143247
C         3.28249330012327   -0.47008484562684    1.66251406584309
C         2.38629365992052   -1.48709964286765    2.45025094486324
C         0.99269576018332   -1.14238768641703    1.98668340033125
C        -0.09162534075026   -1.93406380139739    2.70528332038411
C         1.08717193795012   -1.53298707126009    0.33520044537626
C         2.29035456658014   -0.86636766295845   -0.45838255501597
C         3.38565725759987   -1.84509621496176   -0.84983074164045
N         4.46774446236493   -1.17179473451599   -1.35535850445002
N         3.42748607900775   -3.14125303157604   -0.75412798517446
C         0.70465703573159    0.41067658395437    2.43406903582615
N        -0.47712574923204    0.94554686442675    2.52317909316225
O         1.80235069158607    1.05238605803683    2.80473825273858
C         2.22548152513219    2.39108684889875    2.40134518112739
O         3.34728399077433    2.39460241828498    1.48428888655517
C         3.47017600471908    1.59238983632108    0.27216361189063
H         1.31680652176779    1.52871536096895   -1.03311090577741
H         1.00630631889136    2.01365333451708    0.64103770054067
H         0.24522613765041    0.54617927352520    0.05773860586254
H         3.78468139029985    0.15749240068028    2.40325636884398
H         4.03529480723836   -1.01713111226131    1.07233653826555
H         2.73441994886638   -1.58276868247203    3.48300584139654
H         2.63200126690661   -2.46909674595713    2.02626368006368
H         0.19402512948213   -2.97802408568755    2.58681264445770
H        -1.08404695914531   -1.77556715260115    2.24866124838946
H        -0.23164213636390   -1.57924609576004    3.73227669379508
H         0.14991658813305   -1.24086430511298   -0.15084085492411
H         1.18846912424436   -2.62918962907565    0.41383918577373
H         1.81586298224887   -0.56045411232245   -1.40669289068159
H         4.66323142337968   -0.19168352313826   -1.28541225493718
H         5.15611498170804   -1.78612180970231   -1.77575446418937
H         2.60234010408535   -3.61609565059057   -0.39386033359723
H        -1.19024638743060    0.44157692719368    1.99663187216287
H         2.52891699755622    2.88459515643954    3.33054542571167
H         1.35771150692792    2.91825122297808    1.99330391842664
H         4.55040716362639    1.43208138163705    0.26240465608875
H         3.34621643703360    2.23616612353502   -0.60553848036688
