38
 energy: -53.116458797744 gnorm: 0.160893321564 xtb: 6.4.1 (79825abcba525fcdf90b791dcacef51065a7a4e7)
C         1.19186990586926    1.01280224381775   -0.04799586017302
C         2.58330863816114    0.26527539894941    0.41894182328989
C         3.30863478014101   -0.33972189174068    1.85307771549887
C         2.35060996837445   -1.31001686284071    2.62685960451178
C         0.97783520932134   -1.09633621071463    2.03892564325655
C        -0.01590047225450   -2.07177084037364    2.65529066265733
C         1.12552244483782   -1.66196454708453    0.44294863192304
C         2.27008040061874   -0.97442711368098   -0.41675085387372
C         3.51842874763685   -1.79282873426118   -0.70428253849746
N         4.27129721067535   -1.26249975761627   -1.72003161422131
N         3.85960414959558   -2.96938782653499   -0.26811831768497
C         0.61417058658274    0.47080320411322    2.36595913215389
N        -0.53484235226020    1.06667517433986    2.24209139866778
O         1.64732937203404    1.16913762648369    2.81208694502072
C         2.11678764518181    2.42270293961219    2.22722080175466
O         3.23315935599025    2.48060592061983    1.30537112811550
C         3.50541737678406    1.45670915592408    0.30267169965454
H         1.40007465669994    1.48082356288717   -1.01536620756246
H         0.89394091082717    1.92521674550799    0.49189517877142
H         0.30020064397079    0.39559381563634   -0.07050695322891
H         3.88287093051082    0.43795813573539    2.36318736433602
H         4.11729502175723   -0.91126051585559    1.36966127376737
H         2.31078073774322   -1.08013282498654    3.69573477267656
H         2.55397697152393   -2.37942766296807    2.48736717140061
H         0.50530690528097   -3.02695846496826    2.69329117937611
H        -1.00255197247286   -2.01733497235483    2.16327326035586
H        -0.06076569863824   -1.67615516928982    3.67592333639463
H         0.12670630602305   -1.72521901444661   -0.00245526149928
H         1.25256420658108   -2.75742856629727    0.39908316068392
H         1.86766185995652   -0.75049480732085   -1.41971221732217
H         4.07775711901881   -0.38576626401939   -2.16456084216965
H         5.03592804585169   -1.71693635897228   -2.20666448225704
H         3.17971589691925   -3.33744660124656    0.39401375605906
H        -1.23356209668118    0.47067210806859    1.79897766666240
H         2.58971001765454    2.92678251186134    3.07650570455331
H         1.26096879665437    3.00631914753324    1.87452976029858
H         4.55535806555590    1.19528285654250    0.45090881620053
H         3.31130313900844    1.95571862014254   -0.65309190891610
