38
 energy: -53.130612104339 gnorm: 0.143591854211 xtb: 6.4.1 (79825abcba525fcdf90b791dcacef51065a7a4e7)
C         1.08317527351903    1.05548300072431   -0.09225715991025
C         2.48483277815449    0.32085522705382    0.36447820276204
C         3.25722791850800   -0.47938682290046    1.67286801341222
C         2.30781244787385   -1.34883259315860    2.56768452890104
C         0.93200113847927   -1.05633180199224    2.02231967798169
C        -0.08117267386393   -1.95491983526261    2.71867268871919
C         1.09633870176216   -1.65259743873701    0.43917407487805
C         2.17703846951964   -0.92292020045743   -0.46717187484212
C         3.41346050815614   -1.73571452079639   -0.81567610558597
N         4.20733850008947   -1.06754850215344   -1.71184452643506
N         3.84891139809480   -2.94092991222343   -0.59483780795673
C         0.63569756015322    0.52587167830764    2.34475591790349
N        -0.51581940814518    1.12864130255935    2.38101605117226
O         1.73905701529090    1.07902521917568    2.82510697889143
C         2.36908515163704    2.30936987390679    2.35266433308928
O         3.56869637474337    2.13400196877696    1.55917558399824
C         3.45884974543636    1.47173822531565    0.26409426611803
H         1.13341483125708    1.48183304047899   -1.09918326800604
H         0.74560924276027    1.95245999612714    0.45016858082666
H         0.20315650999371    0.42829888031057    0.00119934685743
H         3.69748873600492    0.22494685481742    2.38338171716250
H         4.09559503973048   -1.01721747993758    1.20153162859194
H         2.37418415291591   -1.17625140067066    3.64598767997147
H         2.57632262329942   -2.40624129909639    2.44833276032978
H         0.16969804421390   -2.97729297967920    2.44064103790522
H        -1.13996938200835   -1.77751162292876    2.46176527611352
H        -0.01575428469071   -1.95062106619581    3.81225288469959
H         0.17118848926324   -1.65710556963496   -0.14742305513488
H         1.44625963630509   -2.67192631573087    0.67714297242774
H         1.66624357244363   -0.66471689399299   -1.41080182449894
H         4.02373493065693   -0.09711447228870   -1.87999073282418
H         5.16579638273916   -1.39443808750945   -1.76170611960764
H         3.31996291769869   -3.50591283340421    0.06632932581078
H        -1.18103681567359    0.44023669922501    2.02978446705402
H         2.81874298607494    2.71673713945259    3.26419950833739
H         1.70074302717843    3.03365205155262    1.87710268272412
H         4.48364884536352    1.10963004666864    0.15752091880780
H         3.19437048557882    2.23129981172868   -0.47974158247697
