38
 energy: -53.124079878286 gnorm: 0.149139124848 xtb: 6.4.1 (79825abcba525fcdf90b791dcacef51065a7a4e7)
C         1.02592014030086    0.95551862601250   -0.01112066575751
C         2.53594903615768    0.38134245589103    0.30991417780325
C         3.31667161841487   -0.31777497907311    1.67027168664081
C         2.40638205267831   -1.16548887378452    2.62461771710410
C         1.01457727575514   -1.10525365607826    2.04575029531519
C        -0.08450228486817   -1.92596752562689    2.70706870234366
C         1.25326796012672   -1.66880877755294    0.46008893588295
C         2.37042151215778   -0.95394006400821   -0.41325779876068
C         3.49418410066914   -1.89358032874569   -0.81953734923801
N         4.74255847339620   -1.32706622844916   -0.84025261752747
N         3.39649122986946   -3.13825877903267   -1.18307941415404
C         0.56126101004564    0.43852045683134    2.37193227336965
N        -0.66443685437222    0.77759116317048    2.64273324020491
O         1.56511541601365    1.25399805288064    2.65722279290872
C         2.16208592263600    2.50423666803941    2.19417304520108
O         3.28789567232216    2.45048345751001    1.28361916696853
C         3.43054261852160    1.58404402653899    0.11878882806657
H         1.04665657098539    1.20932342477252   -1.07571057949319
H         0.80740475342716    1.97242355264296    0.35067988106631
H         0.21765567371772    0.25035961512088    0.15008225970201
H         3.93309613002177    0.40547053217296    2.21034759851372
H         4.00296623190019   -1.06265625464626    1.23618548467325
H         2.44660514494943   -0.60370070859448    3.56254272908197
H         2.83485453259733   -2.17332817370453    2.69622087707619
H         0.32896358470341   -2.93178198069578    2.76062079838016
H        -0.96168597059745   -1.97595436666388    2.03880552696575
H        -0.21761931759328   -1.57079115632686    3.73485530549770
H         0.35236766809581   -1.76809118016820   -0.15516800928527
H         1.67908628394402   -2.67296506758570    0.62877243403536
H         1.86337890540242   -0.76004657621223   -1.37415892388689
H         4.78088824708906   -0.36838627593728   -1.12867799860615
H         5.46227264738529   -1.94972122942657   -1.18996213796194
H         2.47188089948863   -3.51982328341428   -0.99429793812103
H        -1.28993700492060   -0.01023214900183    2.47581197162295
H         2.66377177774740    2.89817656560965    3.08420635063746
H         1.48303816178639    3.26871298963361    1.80443616740765
H         4.49469396172463    1.36572810979901    0.23109857311527
H         3.24024698541880    2.28177084709666   -0.70409615851536
