38
 energy: -53.121530534794 gnorm: 0.150925287266 xtb: 6.4.1 (79825abcba525fcdf90b791dcacef51065a7a4e7)
C         1.18057645526486    1.21828355901706   -0.15693098642904
C         2.53040199023329    0.42699009543812    0.35761208340433
C         3.25085878123082   -0.28507471594092    1.74425233478386
C         2.39328804023195   -1.33793981032280    2.52787838519616
C         0.97486738364597   -1.18390014700579    2.03778561868944
C        -0.13274325583835   -2.09121855111696    2.55630382806001
C         1.15761764523606   -1.66189517994211    0.41697944462657
C         2.32466013497434   -0.90927055610378   -0.35332688041609
C         3.51011143734159   -1.81794693841811   -0.63588955798343
N         4.15657059442233   -1.47641564495431   -1.79573991480414
N         4.06891259126122   -2.84967833539790   -0.07535164982681
C         0.64819658945124    0.36959626611818    2.45619200563469
N        -0.44088726173991    1.04424225240134    2.23396122103170
O         1.69140918496266    1.08683127464938    2.84529289161587
C         2.07350510114306    2.39944636552768    2.33057955830244
O         3.26929188549484    2.35407832721117    1.51358440055273
C         3.51303349316999    1.57373919454669    0.30546353393264
H         1.51895188413323    1.78484838807738   -1.03026077545225
H         0.63575253434568    1.95147809454245    0.45815998123820
H         0.43500000330641    0.47839599826127   -0.42750300087056
H         3.83887078245215    0.41583871902137    2.34233884418089
H         4.13096069983649   -0.79228155577763    1.31712112624970
H         2.48925993346534   -1.14686796259989    3.60082204759828
H         2.70522050796037   -2.37082803109102    2.32714027130053
H         0.07878019388282   -3.13293601184234    2.32057702940713
H        -1.12616198657444   -1.77419104728134    2.19417352833371
H        -0.20417523666243   -2.09268441502919    3.64951515894249
H         0.21177842294017   -1.40457960402323   -0.07209754630145
H         1.36401004255072   -2.74592226660253    0.43679515553049
H         1.91513663232192   -0.76562579085400   -1.36805567853281
H         3.81482735451700   -0.72121245007220   -2.35841683020988
H         4.73929524064066   -2.12201613114147   -2.31690829745973
H         3.56106828447978   -3.18437144212323    0.74086453394119
H        -1.22891857230079    0.49026496055647    1.89945482442547
H         2.41776228872341    3.01820250731349    3.16584266522183
H         1.17759600687297    2.91378209872952    1.96970506516173
H         4.58145128782117    1.34763300138184    0.31272972167680
H         3.25524436715259    2.16701073985427   -0.57870188751638
