38
 energy: -53.125778239181 gnorm: 0.154470909106 xtb: 6.4.1 (79825abcba525fcdf90b791dcacef51065a7a4e7)
C         1.11120978140760    1.19807545245336    0.02701251066251
C         2.50595089760264    0.35750849633936    0.27414268200440
C         3.28300243968841   -0.40334682331889    1.60311054055053
C         2.42811508244455   -1.40373502174693    2.45540939345654
C         1.01545374781038   -1.11494211346039    2.01176213131895
C        -0.05736741101422   -2.04896337770011    2.55540556374707
C         1.07581039558130   -1.50480309225857    0.35850623965145
C         2.26088839399783   -0.92202942345483   -0.52340579169202
C         3.49405921925244   -1.80333938510389   -0.63921478481066
N         4.43114060658232   -1.39373480489629   -1.55240068187474
N         3.73689845793145   -2.95549521491597   -0.08740212048815
C         0.66567584741732    0.42887799752147    2.44696746121236
N        -0.52647838736465    0.94087372519871    2.36172668808615
O         1.76153245512378    1.06631456799592    2.83023103053576
C         2.20527839373869    2.37584476416469    2.35895014746051
O         3.24180456333962    2.39578738979518    1.34669466647750
C         3.43632113484464    1.54433131136524    0.17832785591130
H         1.20462013721056    1.31559100289177   -1.05726751075973
H         1.01471972237283    2.19646115697301    0.48161111423707
H         0.18752916240916    0.64490173062175    0.15869397829820
H         3.64849785600826    0.42102895555961    2.22081833271691
H         4.15549896341046   -0.89331831296709    1.14163790791690
H         2.50060958948621   -1.15064346584603    3.51730221811614
H         2.77422464837660   -2.43765339975837    2.33020284747302
H         0.15113374843516   -3.07210707115458    2.24687872647660
H        -1.01429420298749   -1.63366603582088    2.19437259372551
H        -0.03136547394364   -2.15596977286751    3.64540061803391
H         0.07048573543943   -1.40634884960191   -0.06534340927607
H         1.29188610026589   -2.58418162016189    0.43824648727134
H         1.79281758572049   -0.74279206395152   -1.50666645413793
H         4.34751098024075   -0.45427587054952   -1.89025955191449
H         5.22294723611075   -1.98186317422181   -1.78720223526366
H         3.10952524642937   -3.19151004706902    0.67864881110047
H        -1.34823832045967    0.44535910151550    2.01682877470650
H         2.47899747559180    2.95145921420311    3.24933348685116
H         1.30698318500686    2.88006551657742    1.98982699697528
H         4.51870727690774    1.41287387396746    0.24039699710663
H         3.25916718854921    2.10072386692934   -0.74861262490014
