38
 energy: -53.123244764624 gnorm: 0.163477255642 xtb: 6.4.1 (79825abcba525fcdf90b791dcacef51065a7a4e7)
C         1.15880242810129    1.07819857628686   -0.08349723343200
C         2.54616437466353    0.30501510955987    0.35278600339175
C         3.23997893937583   -0.32811693066633    1.79036404970141
C         2.37758677262242   -1.32928008363951    2.63414978589128
C         0.98478675091154   -1.14087148183226    2.08601968976002
C        -0.06160328956145   -2.02428095979880    2.75201123214537
C         1.18407114400635   -1.62470626301457    0.46889903423957
C         2.31843882511863   -0.98205508005252   -0.43775042944492
C         3.52614268079282   -1.84456469913974   -0.76692784165321
N         4.30523448714560   -1.26462524350171   -1.73465305810174
N         3.98020814227421   -2.94406204217649   -0.24170284863542
C         0.60840800834718    0.45432909875984    2.17984400717063
N        -0.54646143601886    1.05149303004220    2.19742774543908
O         1.57120486198407    1.14901711045430    2.76682687537624
C         2.13142622386631    2.41028781330234    2.28804328162444
O         3.32436186509047    2.28306227294134    1.47553875752866
C         3.41315710279905    1.53607105763411    0.22573289719615
H         1.34949705765583    1.38170567446160   -1.11776874513747
H         0.91953229189766    1.95861109938492    0.53324244419317
H         0.28421442679427    0.43905259921893   -0.13931218178992
H         3.74632849727734    0.43732556647514    2.38404169077425
H         4.01349042561320   -0.91041946172416    1.26416733447989
H         2.42417385092467   -1.07717718983027    3.69772908919118
H         2.84082053021006   -2.27729804115546    2.33226872477820
H         0.04727282841059   -3.03006832690318    2.34949126138490
H        -1.04694951310214   -1.56709242534673    2.55554994376486
H         0.01967894683049   -2.14711207748279    3.83760848946762
H         0.19887259919548   -1.43527163198169    0.02899246152024
H         1.37798108558003   -2.69450291303154    0.65873917568443
H         1.75509066673591   -0.78689945731571   -1.36649742270834
H         3.99536585555493   -0.53789431532685   -2.35074493686802
H         5.00094850165275   -1.95402992970613   -1.99673640526385
H         3.49526293218512   -3.32358064650565    0.56880806479866
H        -1.28086559632028    0.36016449938722    2.04744735741030
H         2.55396791637841    2.99495657634371    3.11185004799759
H         1.33253325092534    2.97452012642302    1.79729215206184
H         4.50220269518416    1.45542260745216    0.23872962142027
H         3.19358059428551    2.22519730338093   -0.59710731678583
