38
 energy: -53.132236897735 gnorm: 0.149814471720 xtb: 6.4.1 (79825abcba525fcdf90b791dcacef51065a7a4e7)
C         1.10239156650211    1.01470699755467   -0.08810354579800
C         2.52396467645993    0.34480211165398    0.40513701346062
C         3.31772341489487   -0.35417178674529    1.75800361022534
C         2.40573660141946   -1.34092440390431    2.56585359696666
C         1.00677745105772   -1.10138565742721    2.05460926031475
C        -0.03777320190347   -1.99254386347126    2.71312282459360
C         1.21415505449255   -1.64613113641514    0.45800773680776
C         2.35178946336066   -0.94295568999695   -0.39822591603029
C         3.49523377280975   -1.84735811345232   -0.82883082200860
N         4.72388437962136   -1.26537416915392   -1.00636469307250
N         3.45166300924969   -3.14178447150892   -0.94499082087190
C         0.68998186821083    0.48600538522438    2.32839570141973
N        -0.49027918361949    1.03140711766691    2.34097110476721
O         1.73287525090963    1.18718607884079    2.74653095037593
C         2.05701526773494    2.51613883652854    2.23398505370328
O         3.20972704899127    2.45087250420717    1.35851875660371
C         3.35973607333868    1.58579249105256    0.19360286991727
H         1.24347043282531    1.07977742584564   -1.17164457187567
H         0.81538627629653    1.95212182686312    0.41351946016179
H         0.25344688192614    0.36100195168958    0.08068537630390
H         3.74605000416566    0.42762595262667    2.39051753167729
H         4.08229885724167   -0.97535877751881    1.26421179861433
H         2.54294927613469   -0.97389395585549    3.58731749520961
H         2.82433901279230   -2.35540789002481    2.55871224849106
H         0.40708913974282   -2.97932155658724    2.83081666870020
H        -0.94523874674133   -2.18285703297127    2.11411302231014
H        -0.36331464263422   -1.62485236503772    3.69242942542823
H         0.28543329822899   -1.66662785270570   -0.12257405730227
H         1.42965331189679   -2.71917135218203    0.60031164769994
H         1.82106162706132   -0.79294618007080   -1.35417725148071
H         4.76822496862280   -0.30847056014542   -1.29978420651353
H         5.37023157269860   -1.84759189844263   -1.52717397638737
H         2.57557853342945   -3.61052367984896   -0.72387158400434
H        -1.30482429341749    0.41992678330262    2.29211648673869
H         2.52695896753722    2.98934163543904    3.10247147449931
H         1.11750016739416    2.96341884833838    1.89534554003965
H         4.43230069846818    1.43475116665773    0.05401405336914
H         2.91607918216701    2.19968178087715   -0.59790414757851
