38
 energy: -53.123350400644 gnorm: 0.147414564303 xtb: 6.4.1 (79825abcba525fcdf90b791dcacef51065a7a4e7)
C         1.12948403088411    1.17285847476274   -0.17260581489127
C         2.51489000253369    0.41970586384680    0.30314656342903
C         3.28268835896111   -0.32463333667609    1.64676491945473
C         2.46660140025387   -1.34810873908077    2.50962204725329
C         1.02507008456157   -1.15463697018088    2.10913185977380
C         0.08193403637157   -2.18710945568774    2.71194532456501
C         1.04958843199408   -1.51582612056889    0.44846007380555
C         2.26208977005741   -0.91985153385660   -0.38608087445002
C         3.47969716259790   -1.79624037630809   -0.63144598554362
N         4.51489310332061   -1.28489875377065   -1.37084100912302
N         3.54785149329346   -3.05716325759902   -0.32102752222213
C         0.59437483616851    0.40688879491694    2.37609186486616
N        -0.59071670157574    0.89726574203781    2.16225592533485
O         1.65024526103056    1.12395983837974    2.72973687303867
C         2.17969042177046    2.43077047375114    2.34787403361657
O         3.30740454852627    2.30539104803015    1.44677125823350
C         3.43355475703344    1.61198822833987    0.16959710960364
H         1.16247800859363    1.24868165553949   -1.26410056850840
H         1.07503327692895    2.20742637846060    0.20082236128643
H         0.18828237114279    0.65089575437751   -0.03761911188812
H         3.70949089712483    0.43645864223092    2.30503828087362
H         4.12445091154720   -0.84534426742039    1.16243532053106
H         2.63361221915873   -1.22750956563457    3.58409418202436
H         2.81015185906571   -2.36437162769955    2.27802209000772
H         0.63669180424794   -3.11610628589869    2.83316110680892
H        -0.86625561156049   -2.23655068151434    2.14890223887204
H         0.01459184335298   -1.83485469092004    3.74712516622460
H         0.12989230251774   -1.08299990658721    0.03999962638209
H         0.86371529494851   -2.60360830056062    0.46538044656882
H         1.84692671565044   -0.68325191884369   -1.38090653311342
H         4.67688411689295   -0.34836128121178   -1.68767231915271
H         5.07625925381321   -2.03828091073730   -1.75198121607896
H         2.66347418873551   -3.37397051074520    0.07094712616857
H        -1.40795630775221    0.30050488972187    2.03665891588265
H         2.65926846015063    2.89675109311837    3.21499777824391
H         1.41435222865923    3.07597432129031    1.90583988956390
H         4.48851063157922    1.33901981356245    0.24205223008870
H         3.29250213375012    2.24500516816257   -0.71333468146111
