38
 energy: -53.130558094102 gnorm: 0.150392217966 xtb: 6.4.1 (79825abcba525fcdf90b791dcacef51065a7a4e7)
C         1.06324184752998    1.14571661873922   -0.04333537698123
C         2.49532812652841    0.40595078825753    0.29549246905074
C         3.30909146225596   -0.31696074584465    1.62366927557940
C         2.42855976965216   -1.26051294677301    2.51383524674246
C         1.00947665384112   -1.09353939080719    2.02993521311587
C        -0.06566877398119   -1.99029485982899    2.62891860381977
C         1.13383559654777   -1.57508258779703    0.40465351879237
C         2.32029599225579   -0.92748315599568   -0.42885146371568
C         3.48942571341056   -1.87610834661296   -0.63879237601277
N         4.65827862636503   -1.32803022082621   -1.10052730819437
N         3.46516024503167   -3.17618595771128   -0.62693669356679
C         0.63323027851703    0.46824077065911    2.36818103987089
N        -0.60236877786793    0.86621126462317    2.44269165435414
O         1.65726172277534    1.15329560258211    2.85416206751945
C         2.20770803346328    2.39717207351346    2.32155934828158
O         3.29564131894550    2.34634044346278    1.36591156482988
C         3.38816190561528    1.61078034333198    0.10961285881889
H         1.41108115352475    1.43773225090085   -1.03929383744673
H         0.81786396668857    2.00403766601552    0.60150484618514
H         0.17673917616360    0.53980617529239   -0.19667358635595
H         3.84950203849887    0.45279343184130    2.18060746741408
H         4.03013811193669   -0.97723446897166    1.11532925329770
H         2.54628894030043   -1.01683732806414    3.57387731897336
H         2.82330548723728   -2.28448346899877    2.50306875969173
H         0.16858680986888   -3.02680541600256    2.39173775636068
H        -0.94392165284893   -1.79561403513385    1.98915549647390
H        -0.19392184371621   -1.89462740395910    3.71271497806399
H         0.12749924002455   -1.36043594272748    0.02884319191481
H         1.36108369247157   -2.65383237845254    0.45721218026747
H         1.93260648375298   -0.85615011014787   -1.45968912969593
H         4.79912912596291   -0.34244072248585   -1.21233112098006
H         5.31832022822025   -1.93531304591923   -1.57332445216624
H         2.58182077798529   -3.64918874847986   -0.44773312655217
H        -1.25817537042500    0.18065978428063    2.06890615205903
H         2.76330593691838    2.89569328322164    3.12269866397908
H         1.45262991641888    3.09746671236491    1.95160096443161
H         4.44165701897086    1.33643386484585    0.02257576771522
H         3.09523735191534    2.31253623005060   -0.67899904073339
