38
 energy: -53.101518333741 gnorm: 0.157683279753 xtb: 6.4.1 (79825abcba525fcdf90b791dcacef51065a7a4e7)
C         1.24921494734284    1.25095305214417   -0.04969730646380
C         2.63490791654838    0.40228417584609    0.21964455702351
C         3.29846574861510   -0.20939438298542    1.68060513854733
C         2.42446890206057   -1.21676874191353    2.50483124985123
C         1.03783692833577   -1.10171462740190    1.92186418577384
C         0.05125137956587   -2.18347583871431    2.34058936718975
C         1.09544038320639   -1.40932830126859    0.25125196693562
C         2.34563693159393   -0.87382474187024   -0.56853358232826
C         3.46779025848164   -1.89618943030703   -0.64835577950742
N         4.40253367600647   -1.64884737155744   -1.62040647738662
N         3.67519408027624   -2.99022766707887    0.02320594301515
C         0.62614557406404    0.32253349835304    2.62695728458527
N        -0.51078753652339    0.94147612070797    2.74914760874902
O         1.64024518905724    1.05865450580747    3.05572983886214
C         1.99174861059672    2.22111964014947    2.24393822248037
O         3.01281052861045    2.44154521606184    1.23980153501929
C         3.53113101760847    1.61709246223407    0.15374597373991
H         0.47705657963930    1.19972024220292    0.72447657930699
H         0.71157181084305    0.92007305072919   -0.95202902134896
H         1.53270863215259    2.23726528539924   -0.40090461426673
H         3.69762377976395    0.63909859931533    2.24227920786423
H         4.17190689013608   -0.72451514077798    1.24929270629063
H         2.45541407508881   -0.84884389769650    3.53468602755654
H         2.90528459253881   -2.20286031231886    2.47490788408298
H         0.46001439862486   -3.18497739562026    2.21652492962976
H        -0.85930604330557   -2.06912133929550    1.72712885712678
H        -0.30059822327746   -2.21831964640340    3.37750954216917
H         0.15949312051595   -1.03369647496956   -0.17644288198261
H         1.11071791485770   -2.50764606657508    0.14368856435915
H         1.95230165359874   -0.68332534413767   -1.58195115418808
H         4.43284052753790   -0.67967223336994   -1.87241177021070
H         5.26893208990959   -2.17205698521720   -1.68032285510347
H         3.02072754591216   -3.14080881689830    0.78814584038517
H        -1.29962526749569    0.34497508886083    2.50075222037718
H         2.39269220781867    2.85824219027139    3.03914619666557
H         1.03151903401198    2.67450015870792    1.97968452327791
H         4.59061717590596    1.40873742949011    0.31736336964844
H         3.40263431457581    2.04780095266024   -0.84533042334236
