38
 energy: -53.129840930331 gnorm: 0.158245408624 xtb: 6.4.1 (79825abcba525fcdf90b791dcacef51065a7a4e7)
C         1.16829327642768    1.25763993779356   -0.00935950553044
C         2.54217537842001    0.37041018575102    0.18608929635883
C         3.29784762881532   -0.37899069615554    1.53376256324771
C         2.42941807702540   -1.44136715523519    2.29218766005501
C         0.97347359363421   -1.16404411716711    2.01084473351514
C        -0.14432606875476   -2.01589477407867    2.59715820187059
C         0.96934422044535   -1.48361067574729    0.34148867162798
C         2.16840567399315   -0.92285949914775   -0.53578752781803
C         3.39566249867334   -1.80801238520853   -0.68130132142663
N         4.41434979055590   -1.15165941034109   -1.32261471928864
N         3.58604005140299   -3.06716504516758   -0.41820037572389
C         0.72714597455483    0.37465924219777    2.52741363293344
N        -0.46982115160106    0.83835535462400    2.73451973012149
O         1.81080604278773    1.03344114251475    2.90925821763812
C         2.30996982300145    2.28518468382094    2.34546830677387
O         3.41142808441673    2.35014180566552    1.40631144387811
C         3.48435937962265    1.55176724953639    0.18763420364398
H         0.67414319323071    0.81949052540059   -0.88230815491911
H         1.35660369142466    2.32151900906603   -0.22253724244278
H         0.47707018391130    1.28512218260845    0.82609391712058
H         3.71934863732896    0.38802279746635    2.18856973310296
H         4.13654411839194   -0.86056425078096    1.00560127783711
H         2.64775492192122   -1.28626902888938    3.35294245829303
H         2.76465779789297   -2.44058460809579    1.98619006599828
H         0.18708582341564   -3.05092947521540    2.66314214922686
H        -0.97281622217072   -2.06090694135995    1.86907610972723
H        -0.47890117210505   -1.60679443171745    3.55679985024551
H         0.08335355826010   -0.97449167112845   -0.05327431652175
H         0.96662439751914   -2.58044910171802    0.21883769047138
H         1.80254936692312   -0.77688345271580   -1.56673756575274
H         4.30549674460915   -0.21407234520851   -1.65848243383935
H         5.19607217652543   -1.73652215322719   -1.59616575401031
H         2.76279928279040   -3.48337493260758    0.01212292072933
H        -1.26393748990063    0.23942261241456    2.50993675069360
H         2.84850381612926    2.78526678015616    3.15721682552252
H         1.40330667026262    2.85329782545592    2.11604703132960
H         4.55853971363294    1.35716449292454    0.15665422781280
H         3.28842756834092    2.13908466526940   -0.71615991605767
