38
 energy: -53.130808301573 gnorm: 0.157834377371 xtb: 6.4.1 (79825abcba525fcdf90b791dcacef51065a7a4e7)
C         1.00262141541900    1.09423494373813   -0.05085435301628
C         2.43783085140156    0.39690692523848    0.35760174710106
C         3.33322839416744   -0.32096154426375    1.63501850267035
C         2.45309529364484   -1.31211826121096    2.47227375551747
C         1.02717494738073   -1.13611534438822    2.01226242806429
C        -0.01480897836076   -1.97719693864112    2.73734199653460
C         1.19843709247749   -1.66265907493876    0.40530551776979
C         2.31863000645902   -0.90708434721121   -0.42900766952866
C         3.48611853052311   -1.83893124737929   -0.71089616221034
N         4.47298506737385   -1.27020668989094   -1.47408206367651
N         3.69027090429825   -3.07125902962939   -0.34948062030864
C         0.65440668253912    0.44018113125798    2.27958625957960
N        -0.57204461440040    0.86855251812578    2.33392330677891
O         1.63720607951372    1.17161981575263    2.78279679707811
C         2.16653789137927    2.43615710985884    2.27817939427832
O         3.28800170974626    2.37466659654761    1.36276517679787
C         3.43868754633854    1.51688947302278    0.19254838412202
H         1.21149480132815    1.34888372624356   -1.09475303747993
H         0.71217664741249    2.04238036293061    0.42810945511392
H         0.07803051258498    0.52710138725399   -0.04658322383341
H         3.88275300494598    0.36299304813743    2.28691883631108
H         4.01729864803875   -0.92314014114952    1.01557677007604
H         2.52155706614699   -0.92711172132628    3.49404188516138
H         2.76358472675125   -2.35289631351918    2.31468858242686
H         0.13522612508770   -3.03772674252583    2.54176449552349
H        -1.05185353297394   -1.61615071366149    2.62460436035585
H         0.13740560387635   -1.85996554957621    3.81590734629454
H         0.25432009020586   -1.47675837313598   -0.11824338695424
H         1.28850169652816   -2.76081615964097    0.46890253307692
H         1.91053236654330   -0.70360180318844   -1.43402956679684
H         4.58698415416139   -0.29201751168796   -1.65813572850105
H         5.31201583775270   -1.83849584377821   -1.44153527871233
H         2.97285706049839   -3.44882859742185    0.26606204316800
H        -1.32274235335973    0.20142023805589    2.15738397900937
H         2.57493061191654    2.92178848993777    3.17059979634239
H         1.29251414546167    2.94725061195257    1.86310027930064
H         4.50007477530140    1.26092126589806    0.16743224325030
H         3.12022071539252    2.10069570798942   -0.67803992935647
