38
 energy: -53.130228703859 gnorm: 0.155286990221 xtb: 6.4.1 (79825abcba525fcdf90b791dcacef51065a7a4e7)
C         1.16332633959743    1.18466208249145    0.05352812283639
C         2.55287636179063    0.35566412235497    0.36149243089670
C         3.32242911180849   -0.42440683866840    1.68366613990320
C         2.40434407219334   -1.43061841921340    2.45999105539787
C         1.00590134132312   -1.15762371083934    1.96434189167148
C        -0.10642466028287   -2.02912381241313    2.53188711304585
C         0.98526881744910   -1.48300268657555    0.29623147530759
C         2.20264987528526   -0.85247978485613   -0.50515984542314
C         3.39272641870219   -1.76795585894168   -0.74275321988356
N         4.27649703119305   -1.27168610965206   -1.66604718845731
N         3.64212603841772   -2.97352675880058   -0.32402922196919
C         0.72435820055391    0.38652948388352    2.44543769845534
N        -0.47731769316853    0.80758782509407    2.70872892175468
O         1.80821240155610    1.07368746440586    2.77283963924915
C         2.31373177695450    2.37009965708812    2.32826001838628
O         3.43560249504389    2.43036760939884    1.41326317327518
C         3.46665127091685    1.55374255562143    0.24773340883960
H         1.20082767499723    1.37837868247050   -1.02316407406480
H         0.99446340667206    2.17907019649159    0.49554853638531
H         0.18223995105161    0.75685617420159    0.22953567394598
H         3.86622805376631    0.24104853832723    2.35908976726954
H         4.09455281994618   -0.99846734033268    1.14648949005935
H         2.44324425827554   -1.21221146049828    3.53130442367577
H         2.58185755339806   -2.50799767537604    2.34954366768566
H         0.15604249078173   -3.08576100717178    2.54253569512764
H        -1.00373204628790   -1.87937423819424    1.90663509311379
H        -0.28723414452703   -1.76568806640196    3.57980181741519
H        -0.00452223566607   -1.24564319946035   -0.10872972481486
H         1.04458846180449   -2.58257661616637    0.22191079332361
H         1.91221759878381   -0.50748402596166   -1.51245565980423
H         4.13962313217553   -0.35701006915932   -2.05122103644363
H         5.17391511059624   -1.72134105771017   -1.80900068740804
H         3.07846684569069   -3.46157422182059    0.36895862305638
H        -1.25626310248846    0.18524440235993    2.49492661793211
H         2.87735157783501    2.83452348801160    3.14415207698352
H         1.41001158987388    2.95130578935989    2.12110307588270
H         4.53900672529152    1.37414283565724    0.14530728450560
H         3.22809927663417    2.01734764837405   -0.71576963211816
