38
 energy: -53.123772107979 gnorm: 0.158781182187 xtb: 6.4.1 (79825abcba525fcdf90b791dcacef51065a7a4e7)
C         1.18888278760768    1.21388795452325   -0.07632797460285
C         2.55774353797450    0.39452797566407    0.33330401204487
C         3.32021277804777   -0.39246246491984    1.65548106355981
C         2.44366128406842   -1.46560258838707    2.38899998769318
C         1.01940708084539   -1.17295878151358    1.98688577607860
C         0.00890804609426   -2.07564664162470    2.68182135401853
C         1.01991202866960   -1.54695445896521    0.32886993865407
C         2.16950056092939   -0.82731737382337   -0.49718847021091
C         3.29743678423634   -1.79860897940111   -0.80570382595858
N         4.46619640615141   -1.17005563516992   -1.15027246493782
N         3.30800541906796   -3.09857343134515   -0.83590117572534
C         0.72856130593946    0.39066806453282    2.39383613703170
N        -0.45399610898575    0.92754854509071    2.33095017719075
O         1.75024806711089    1.05357811383905    2.91424411924050
C         2.27619839822024    2.35654257201874    2.51481287768392
O         3.13585509730091    2.45560336299207    1.35264994966977
C         3.52002174300495    1.55780150129949    0.26901581148028
H         1.29571659795014    1.26665413967473   -1.16444599549208
H         1.06514059261327    2.17195567059449    0.45238589451039
H         0.23654075207704    0.69903123474075   -0.00928871833253
H         3.83102230033740    0.28405232841191    2.34551482417152
H         4.17901450332341   -0.90620751177112    1.19417329890644
H         2.62046799425899   -1.32545528720450    3.45952568681807
H         2.76757679364085   -2.46522016212903    2.07229954082905
H         0.28473487367406   -3.12226803833699    2.80009122909237
H        -0.95844332455653   -1.84121253357840    2.20453994389874
H        -0.10458887985820   -1.63329249540308    3.67764109308707
H        -0.02209727532139   -1.51254894673019   -0.00736256369337
H         1.33534663156624   -2.60324297805612    0.38235630401002
H         1.71245157146776   -0.70119789112829   -1.49379166754029
H         4.55110615600776   -0.21577062136171   -1.44328451108024
H         5.29453321749742   -1.69904882048118   -1.39928816806027
H         2.48234078830344   -3.51527143281136   -0.41072489864012
H        -1.19973697117307    0.40786374343083    1.86880627997740
H         2.95465875554532    2.46414240331024    3.36754404718169
H         1.51187256993050    3.13802409280479    2.46463917795064
H         4.56591186952797    1.34266348661681    0.49819448195262
H         3.45410964035256    2.21558816169958   -0.60456712252907
