38
 energy: -53.127527190935 gnorm: 0.154091812616 xtb: 6.4.1 (79825abcba525fcdf90b791dcacef51065a7a4e7)
C         1.17965670666801    1.16347077485758   -0.08164283275564
C         2.54089459948580    0.33915246235193    0.34316256134880
C         3.35894392809715   -0.26920213410003    1.72503283545485
C         2.39538890579297   -1.18536660460628    2.55583164586372
C         1.03191703811271   -1.05092352088660    1.92440007885518
C         0.08486006461791   -2.02233316534172    2.61601815592345
C         1.09877998827867   -1.59492843429632    0.31552545381281
C         2.29690913644942   -0.92330471453070   -0.48147640149585
C         3.46964703038012   -1.83562952709538   -0.80269048437503
N         4.28207562899978   -1.54533262859730   -1.86828580213069
N         3.78134467436297   -2.96485916606717   -0.23822953795067
C         0.59231937537135    0.47331017154120    2.34700435332137
N        -0.64097743015550    0.87521451163729    2.43694464369930
O         1.57739063318657    1.14535697889137    2.92329054934731
C         2.18752587200177    2.39459071829635    2.47492070069469
O         3.16237309709886    2.40636387208398    1.40301601975939
C         3.44859401381613    1.54444493610969    0.26149576896564
H         1.35466620665065    1.33548062339996   -1.14840562177760
H         1.00732080850510    2.06522605927936    0.52653640478617
H         0.22412365898444    0.65100898189657   -0.05220536307851
H         3.77514420735251    0.44739970735479    2.43777708163656
H         4.17673576079177   -0.81972307527256    1.23266869377423
H         2.38385161818541   -0.95221209079119    3.62467823146974
H         2.81325089506329   -2.19993335998261    2.53343993715596
H         0.54391383789767   -3.00795211088500    2.55848994050207
H        -0.86826744853880   -2.14956887787556    2.07390692179639
H        -0.09832213124004   -1.77238889766040    3.66682158266178
H         0.11295499972617   -1.36527141369178   -0.10331363404596
H         1.17810397802677   -2.69392674775689    0.37889437197238
H         1.73805499773665   -0.77672943481811   -1.42180378482962
H         4.55006078463136   -0.60455050542913   -2.08470799702072
H         4.98150902515339   -2.25958429153952   -2.03746609930950
H         3.09596563601303   -3.22879551058896    0.46655933529087
H        -1.28481176681589    0.16071582493579    2.09820035433704
H         2.73585089879142    2.66541648489768    3.38323215423062
H         1.42603215894268    3.12203347110600    2.17763444862651
H         4.52386951032919    1.37319014030967    0.34604040206006
H         3.30967282692424    2.11909903641659   -0.66081026322223
