38
 energy: -53.132439504943 gnorm: 0.155543918860 xtb: 6.4.1 (79825abcba525fcdf90b791dcacef51065a7a4e7)
C         1.19031872036966    1.19534540208805   -0.06650563613200
C         2.55054525948992    0.34744602136905    0.31267680011050
C         3.28863583739149   -0.35706078189214    1.69389290885459
C         2.44938432886398   -1.41575222448077    2.48941261859418
C         1.03885150194142   -1.16044156832962    2.01925318138032
C        -0.01798730985271   -1.99155512762011    2.73425746804588
C         0.96655634595358   -1.55362439621631    0.36726340228123
C         2.13459170650748   -0.89038654553115   -0.47985688227640
C         3.31925132846434   -1.78000613020968   -0.82042672760338
N         4.23650068396395   -1.14118457567169   -1.61438300060741
N         3.65704661269482   -2.99446456529960   -0.50118353301196
C         0.69009346032912    0.40201877587341    2.38286604222484
N        -0.53138118133252    0.84766367205979    2.38900461399179
O         1.65705727945999    1.15398646290947    2.88649648209651
C         2.35090601399662    2.35292006762258    2.42279658406147
O         3.44511259399676    2.25889643494999    1.47764216597549
C         3.54126638617456    1.48633873505084    0.24402788505304
H         1.40701935526578    1.42662312973899   -1.11424129609372
H         1.22324363627714    2.19972537065719    0.38391757736272
H         0.26255653211254    0.63804067479301    0.00557643976805
H         3.75815208988540    0.41345375151215    2.31082651617037
H         4.09565642775124   -0.89061568927074    1.16633611690231
H         2.46810211970529   -1.25625692643257    3.57160393854085
H         2.83034780276610   -2.39248294450545    2.16488271505203
H         0.28187351768503   -3.02392775305530    2.90681124651389
H        -0.94004138799861   -2.02326682443895    2.12817478767846
H        -0.21732192697140   -1.48546465829930    3.68523267418160
H        -0.01050747330070   -1.27295244283625   -0.04088973657619
H         1.03264313165578   -2.65518897950294    0.35013994355558
H         1.65349249476303   -0.72756935929322   -1.45967929325783
H         4.14636589325832   -0.17314391314831   -1.85624786703177
H         5.02443427688271   -1.70360751603203   -1.91575582254296
H         3.03428572041379   -3.39091843150474    0.19962127569485
H        -1.20400029053074    0.09565772556546    2.24118950375160
H         2.76085447447368    2.59440000930918    3.40903505704643
H         1.57047241341567    3.02709306311966    2.05695657550261
H         4.52949113846292    1.04686075221670    0.09248799136748
H         3.28361999183552    2.19793782283827   -0.54807054261989
