38
 energy: -53.130137868329 gnorm: 0.148874331660 xtb: 6.4.1 (79825abcba525fcdf90b791dcacef51065a7a4e7)
C         1.19913339523642    1.13081431552369   -0.10186153551239
C         2.55867790910716    0.32350339338005    0.35945907931040
C         3.23098603623309   -0.43911236474588    1.74339711241411
C         2.35331597755157   -1.39367094569442    2.62460961365530
C         0.97173751609616   -1.12532863437430    2.08140645030873
C        -0.10700996348033   -1.98662722975141    2.72433551767900
C         1.12972616348403   -1.59163417118310    0.45460335020661
C         2.31629332035390   -0.97738350425881   -0.40362642212890
C         3.52221232154971   -1.79930007875970   -0.82911644419824
N         4.61180132323666   -1.10601215781146   -1.28950061500119
N         3.63019907744535   -3.09285515829289   -0.75175178764374
C         0.59086541080091    0.45626730856996    2.30190494172955
N        -0.61413603560877    0.93536205618546    2.39717890588547
O         1.56988962667370    1.19000978871771    2.80910475965861
C         2.14924608260926    2.41139576075306    2.25552740516799
O         3.30388202758328    2.33692630693830    1.38333733727227
C         3.51429960240430    1.48541118882767    0.21777240538770
H         1.23145418121170    1.25101284143839   -1.18938451992954
H         1.16779557612046    2.17063700926432    0.25942913635604
H         0.25597315020203    0.65347545330213    0.14129155500918
H         3.82639904166330    0.23761006278652    2.36168131046458
H         3.99442026685166   -1.04493597970613    1.22917423657938
H         2.48611295701445   -1.03471241778859    3.64951980624715
H         2.67306681796659   -2.42036318269240    2.40525102852334
H         0.29699226975129   -2.98227841282742    2.90024881045797
H        -1.06033944139074   -1.87534558573204    2.17907880871945
H        -0.26803070662696   -1.61809309107797    3.74338929949334
H         0.19352164972546   -1.32460978256228   -0.04763019505646
H         1.10804483472080   -2.68741695703092    0.58458496434856
H         1.86150924437982   -0.76066534848653   -1.38557476552055
H         4.48660232363315   -0.26419614198057   -1.81808043486535
H         5.21921232161880   -1.74577290086532   -1.78924311256132
H         2.95178098051106   -3.50342414655452   -0.11353852299372
H        -1.21892583341553    0.14079691671616    2.19060139848528
H         2.56773587868389    2.98143222224804    3.09156649178921
H         1.44058339122042    3.12943819931723    1.83169135142179
H         4.56833659427588    1.20237424063202    0.25764104492102
H         3.41064937061389    2.02061604375499   -0.73248400433330
