38
 energy: -53.124014498993 gnorm: 0.152274720709 xtb: 6.4.1 (79825abcba525fcdf90b791dcacef51065a7a4e7)
C         1.11818372200835    1.01834093189337   -0.09092499840842
C         2.58853384362432    0.42325323683968    0.35277543389476
C         3.26544090202098   -0.29100239964169    1.76007824646962
C         2.32964580048060   -1.27153276667702    2.54803129533850
C         0.93617454869386   -1.09019844821501    1.99922163640738
C         0.00188980459716   -2.05693589499425    2.71435789928641
C         1.21135476813772   -1.64346836154485    0.41585250556958
C         2.35338890326666   -0.89032374459473   -0.39058104518822
C         3.51578517785137   -1.82908397260238   -0.67056928196723
N         4.49150860249478   -1.24832313845340   -1.43900052929154
N         3.43919914906524   -3.12664099024495   -0.63299869590721
C         0.58988607003270    0.47810983859615    2.33925430819787
N        -0.62775476629819    0.92161689345917    2.44550699940568
O         1.69830101257160    1.12325558784773    2.66989208191012
C         2.18563617833702    2.45125118016072    2.30545058167936
O         3.33246875293067    2.43126725672923    1.42011388772429
C         3.48043396982581    1.63431652800641    0.20731918659176
H         1.10698578002059    1.27951223599998   -1.15387500367665
H         0.88826105153409    1.90561586014019    0.51950354770658
H         0.25606674237711    0.36081898780710   -0.12168648506246
H         3.70353358512210    0.47071656520466    2.41015843921760
H         4.10164851098904   -0.82369562464258    1.27916869130908
H         2.43180459067915   -1.09468273549987    3.62284049107999
H         2.72262813220871   -2.28230152975189    2.37960585321941
H         0.46341175849120   -3.04178645431699    2.76486952876007
H        -0.96074559867153   -2.11261519512729    2.17699539081082
H        -0.11760350945399   -1.69251622297802    3.74058172761921
H         0.30708474124988   -1.79587707481565   -0.18338595621720
H         1.50896111746395   -2.68299921414052    0.63701146964113
H         1.91928935460023   -0.66993107537449   -1.38103675503993
H         4.71695976619661   -0.27271207222697   -1.47187056084268
H         5.17069818386987   -1.87298623340760   -1.85909816253988
H         2.63772292666173   -3.58777389474713   -0.20740912282801
H        -1.31666645208976    0.19925536660955    2.23724459449596
H         2.50188240687307    2.99428200375119    3.20219049419483
H         1.37196340833770    3.05727025554710    1.89544783594211
H         4.50736381825280    1.26484679927938    0.16731157385897
H         3.34040583631207    2.16121055697763   -0.74291744238284
