38
 energy: -53.129195665906 gnorm: 0.157499759496 xtb: 6.4.1 (79825abcba525fcdf90b791dcacef51065a7a4e7)
C         1.21319812574067    1.26444770849232   -0.04894354428023
C         2.55344561837049    0.38726359979849    0.33474067189663
C         3.34941830424753   -0.41906482215471    1.62513882382780
C         2.44713163283412   -1.48517513674708    2.33739566131793
C         1.01532220147911   -1.18575312979358    1.96847228378967
C        -0.00012767132485   -2.07440660025070    2.67419579193463
C         0.95040735848195   -1.44156857047546    0.28941479787817
C         2.18675879720458   -0.83658744420527   -0.50256801226784
C         3.30972008311049   -1.83381703581516   -0.73777069333591
N         4.36937359616187   -1.13002145806905   -1.24925102792943
N         3.42782604531366   -3.12740070891867   -0.67757601800119
C         0.79561397297732    0.37191053714838    2.43809016629732
N        -0.34887326898346    0.98807325446262    2.40447771145532
O         1.79720659292872    1.06898481752759    2.95288888520176
C         2.14894654959482    2.32920500362227    2.30326625536646
O         3.35693467386862    2.26120803717319    1.50602947737089
C         3.49707604645896    1.56306472628572    0.23290282655224
H         1.28759141663616    1.26014724374989   -1.14102673806617
H         1.18138598189447    2.32695894960674    0.23880995911370
H         0.23136052094019    0.84671493083000    0.14604695645030
H         3.77641536022465    0.20043225122023    2.41800836508372
H         4.22779744379449   -0.92844392459037    1.19704743547561
H         2.74147229061608   -1.53601083427062    3.38987200013120
H         2.64719811122519   -2.50531830987396    1.98563291526622
H         0.22764038382882   -3.13337971891972    2.56382279378131
H        -1.02502387751546   -1.94298462367712    2.28581249534347
H        -0.01290768940356   -1.83239008055865    3.74259663372538
H         0.00164229949093   -1.02878007306988   -0.07040453188089
H         0.88800571073777   -2.54240482277610    0.24072414427259
H         1.62047559309951   -0.65284945579991   -1.43185887759195
H         4.32115476654871   -0.13057934188880   -1.19909107417009
H         5.27396069908761   -1.58489203534368   -1.19634148601363
H         2.65837701451618   -3.66978169166548   -0.29040005562524
H        -1.13944722665079    0.42669801519729    2.08883650749746
H         2.52492982328618    2.82668452829479    3.20337032369481
H         1.26094589285081    2.89543733091686    2.00617951347243
H         4.56972929967863    1.35787001733230    0.23102686313199
H         3.32505596303359    2.24391589616174   -0.60794532462475
