38
 energy: -53.123505972584 gnorm: 0.170806648743 xtb: 6.4.1 (79825abcba525fcdf90b791dcacef51065a7a4e7)
C         1.15836752568696    1.08415821420072   -0.02960105180475
C         2.60732842385998    0.35006975228327    0.24344721412322
C         3.32435778356937   -0.33494353134209    1.64540697725226
C         2.47362765864399   -1.39227745286382    2.43047099654141
C         1.04452230399845   -1.15672341538117    2.00856048061362
C         0.08529795060118   -2.03055705072071    2.80555017507934
C         1.04139962528644   -1.53291483474201    0.35104432356915
C         2.23344558053703   -0.92747410731378   -0.50585227240334
C         3.36452919900927   -1.89315533796633   -0.82039769319548
N         4.52993945021332   -1.27758668090497   -1.19815432607044
N         3.28762412258548   -3.18805293366598   -0.91126560540892
C         0.70564936676445    0.39649258592019    2.41821155638246
N        -0.47510213131959    0.94095236537782    2.42338909153536
O         1.73517826001397    1.09382700341502    2.87418637516902
C         2.12492655780677    2.41357434370664    2.38403467511720
O         3.16866072099916    2.46926114488590    1.38055904674498
C         3.49953588644132    1.56901894931473    0.28147727480717
H         1.47441703197861    1.51972768458046   -0.98280119527003
H         0.98881652004481    1.97172403177275    0.59986190643774
H         0.23583865448043    0.53465560438591   -0.18294517976263
H         3.68759120026866    0.41706299718229    2.35059695347021
H         4.10823808507603   -0.96537608869133    1.19555621954945
H         2.49045683845277   -1.07245606211243    3.47658677680174
H         2.72898345705548   -2.44561186595265    2.25803038969834
H         0.42048227918027   -3.03107167907368    2.53702361733059
H        -0.98435791993172   -1.81330224764775    2.64074047454409
H         0.26880997104946   -1.83734167119565    3.86819162611059
H         0.12365742995430   -1.13547663936094   -0.09595856786612
H         1.00274292881600   -2.62958872328858    0.23307297839679
H         1.78261183000541   -0.69604737052389   -1.48626465106180
H         4.65825492722946   -0.29297290389170   -1.06475094433939
H         5.35559879014760   -1.75539748736804   -1.54161897514490
H         2.38009653506781   -3.48220852760010   -0.55630033510464
H        -1.27770385274824    0.39756514529188    2.10662495724580
H         2.63300792945057    2.90373035701477    3.22107531339583
H         1.27950976568117    2.98990621938812    1.99604399847777
H         4.57777432571521    1.42078401837579    0.37159748135581
H         3.43605282943941    2.14431013699035   -0.64867582413153
