38
 energy: -53.129918651069 gnorm: 0.140274958594 xtb: 6.4.1 (79825abcba525fcdf90b791dcacef51065a7a4e7)
C         1.02645418606114    1.04873667850982   -0.10109801511048
C         2.48144627909608    0.40459644686205    0.32435498650286
C         3.31442957025247   -0.25142239508085    1.67514866949876
C         2.49645763461436   -1.21200748488750    2.60585832493603
C         1.08336810486617   -1.11892550002091    2.08590639556313
C         0.04961589220036   -2.12786301918744    2.56787172601607
C         1.18511620295166   -1.58760029842665    0.45529889854238
C         2.30403626859590   -0.90516409909022   -0.44141875382583
C         3.42678364060678   -1.88345435991552   -0.74673123166442
N         4.65597573380104   -1.35804630170069   -1.05142626649197
N         3.36092466680227   -3.18146733991243   -0.70482601430618
C         0.72415523383964    0.44434620020156    2.43558697384997
N        -0.45761394006566    0.97120844828070    2.30723142414427
O         1.75351595988314    1.16851143163781    2.84804216005417
C         2.07183086093923    2.48577745870629    2.30272453283764
O         3.20957420396428    2.43897435773482    1.40673629206054
C         3.36276738406472    1.62622462540574    0.20512701095752
H         1.03332585442651    1.06564342110344   -1.19556843524846
H         0.94216815543119    2.11890106802412    0.14464225054752
H         0.13948992948779    0.45541644129827    0.09330506581152
H         3.70286226356159    0.52813308994820    2.33557165714876
H         4.12538215822823   -0.81334279360678    1.18435278669786
H         2.58845438768009   -0.94832706689273    3.66365621877318
H         2.83985456910839   -2.25121826587415    2.52477055287752
H         0.56381990463927   -3.06295876944943    2.78391508030405
H        -0.69132222066953   -2.37363359679465    1.78740193111243
H        -0.50033589466636   -1.90487097221042    3.48876436992602
H         0.21230076972696   -1.43016716593300   -0.02309882323796
H         1.39396564905510   -2.67098413106876    0.48298629235161
H         1.88722286660121   -0.84416542724757   -1.46149894137306
H         4.75259107707982   -0.37686654006542   -1.22940762030697
H         5.37840543350389   -2.00790831650900   -1.34083803534196
H         2.38937224008428   -3.47388056428870   -0.62288356614689
H        -1.18375926007546    0.26930989627870    2.16641198659500
H         2.41301964684811    3.23159142097511    3.02825080530171
H         1.16971209578785    2.84096412598929    1.79533029070931
H         4.40822008183846    1.35017000303397    0.05177809256209
H         3.21982925592948    2.28101811941512   -0.66146920751051
