38
 energy: -53.125508768174 gnorm: 0.151183604437 xtb: 6.4.1 (79825abcba525fcdf90b791dcacef51065a7a4e7)
C         1.04275405786403    0.99467664770097   -0.07028814653942
C         2.46404457982053    0.30997594027120    0.40304800628041
C         3.24375331481993   -0.38868793013208    1.76421977685912
C         2.33054883137569   -1.29960137847027    2.65546416201661
C         0.99126831724744   -1.10218010446370    1.98973985067922
C        -0.18923857264388   -1.88890829809623    2.54323005740299
C         1.14378968570625   -1.67384764920674    0.39637140038436
C         2.37146737515622   -1.00959069504845   -0.36084324945769
C         3.63343274438627   -1.76249540815876   -0.74995395009861
N         4.26330282533005   -1.30929525239818   -1.88029868338160
N         4.21107466419494   -2.79349049249647   -0.20745039130127
C         0.64686453356374    0.44538055115935    2.41585121021952
N        -0.55554431710812    0.92432405562575    2.54020330563382
O         1.69422231945772    1.16851571100900    2.78223255500559
C         2.21153892178423    2.43067064530564    2.25951471827238
O         3.42139872520349    2.21647832084046    1.49152624660031
C         3.39106803507110    1.49018369453456    0.22682417381634
H         1.22607912535103    0.97750437560572   -1.14931344698507
H         0.94746951004279    2.03943189715642    0.26460223340260
H         0.03771805501155    0.59027065125878   -0.01657147260695
H         3.70128413357004    0.36441464811215    2.41094019582277
H         4.00689726666365   -0.97108020161073    1.22319316610928
H         2.23119248496366   -0.93691556870250    3.68284651003413
H         2.48240388698102   -2.37973181542611    2.77676551170730
H         0.04894994611487   -2.94013213919434    2.69711063267334
H        -1.02358007351598   -1.95556148256349    1.82353763121573
H        -0.64619798714578   -1.56529477898622    3.48486590924105
H         0.21969508168228   -1.48531442388897   -0.16087524593093
H         1.34910085613684   -2.75214204668645    0.51140935220682
H         1.97552110689089   -0.73439491716553   -1.35357267121872
H         4.05362683008136   -0.40913158088650   -2.26690825243745
H         5.10084464168310   -1.76825969254501   -2.22068057821092
H         3.66756168010162   -3.17053983096112    0.56621724430769
H        -1.38377375397904    0.33875450514867    2.43569008046812
H         2.59876855020826    3.01316990797549    3.10200178407656
H         1.45811570193355    2.98438220842861    1.69102398747796
H         4.42942845553561    1.21132915410700    0.03514426148351
H         3.17052294364595    2.19091183715341   -0.58589643459783
