38
 energy: -53.126869761839 gnorm: 0.157661409846 xtb: 6.4.1 (79825abcba525fcdf90b791dcacef51065a7a4e7)
C         1.17561724935595    1.30157219418681   -0.02479461830249
C         2.56552839562889    0.45993212623597    0.24486795644231
C         3.31390524217983   -0.25466027535165    1.61532601124883
C         2.47746205207980   -1.41893173695067    2.25003620438861
C         1.02111687930365   -1.16476111492167    1.94954940115397
C         0.10249244569861   -2.18331679531842    2.61103456027415
C         0.95685098627365   -1.43366509772417    0.27251329505284
C         2.23415262015811   -0.84952236213483   -0.46848713939265
C         3.30876515045460   -1.90292482031599   -0.68384827351954
N         4.41432020620367   -1.26625747589508   -1.18605205561153
N         3.37373207116245   -3.18845315254309   -0.49911233788829
C         0.71178281701713    0.33282201390094    2.54678135150632
N        -0.47465297239066    0.81656087399030    2.76815024500103
O         1.70030393513442    1.13287518215519    2.91672591618561
C         2.16952910961335    2.34776549364636    2.25509556266142
O         3.34133605449055    2.41894071821368    1.40583239101188
C         3.54143907401086    1.61294955357839    0.20656921052770
H         0.99558653267202    1.04146299335901   -1.07271193641288
H         1.26070941196298    2.39952322149513   -0.02212957791233
H         0.29565818875797    1.09088185265684    0.57337650326161
H         3.53544056542300    0.51926970520425    2.35471746549592
H         4.20027283276629   -0.66137427334301    1.10228073466207
H         2.71274558688883   -1.47194309336526    3.31716253772631
H         2.77194038098424   -2.36035862692819    1.76893989732014
H         0.40237716129083   -3.22665065229688    2.52731971293688
H        -0.88137170613223   -2.01074438993830    2.14118813175603
H        -0.01394491478021   -2.03687266498355    3.69048448856365
H         0.01652958920076   -1.01330892535816   -0.10046900653277
H         1.08347674387503   -2.51911980950451    0.11804905301696
H         2.00812130438123   -0.60667409948050   -1.52108032723979
H         4.27691491177968   -0.46409730936683   -1.77033321618201
H         5.15780235647235   -1.89678274742146   -1.46472151273749
H         2.58652923518408   -3.67905900109408   -0.07988475430490
H        -1.22633238134019    0.19775963547895    2.46509610974956
H         2.61432389882939    3.02747369236062    2.98939181557362
H         1.22093723931184    2.81038764927664    1.96599531824463
H         4.57510269341977    1.29021485628742    0.34825631725000
H         3.58190647525849    2.24823941146315   -0.68502712436943
