38
 energy: -53.129406702353 gnorm: 0.162749644375 xtb: 6.4.1 (79825abcba525fcdf90b791dcacef51065a7a4e7)
C         1.17353421416185    1.03051939384843   -0.10828772676567
C         2.58377773814991    0.35699085223040    0.41180979232011
C         3.33473902349783   -0.31800404587927    1.80080386246680
C         2.40840518102825   -1.30735476142958    2.58891112853588
C         1.02214995177550   -1.09574017520887    2.03271689809610
C        -0.03660937110698   -2.05558103605356    2.55866688919485
C         1.13557051433986   -1.57536217252228    0.40606754501992
C         2.35848550135272   -0.93192631254365   -0.37641126243932
C         3.53286509521121   -1.82822814351128   -0.73460793119586
N         4.17466304646029   -1.39056474212580   -1.86436545555889
N         4.02655477096279   -2.87336582644025   -0.13888240896230
C         0.59325718757206    0.47800528866210    2.21847231405947
N        -0.59829217223777    0.99020376260222    2.31066900824769
O         1.56984991246055    1.16469262068328    2.79192262377261
C         2.11763692296059    2.44087425286897    2.33895979807902
O         3.27359578208047    2.40234590882642    1.46619404161269
C         3.51089202409260    1.54581763348830    0.30949832976433
H         1.37924343103159    1.15915285341744   -1.17568442669486
H         1.01175036720490    1.98584395819396    0.41509092077235
H         0.28324504447009    0.41327735291818   -0.05420889048068
H         3.73647003879148    0.40116241590471    2.51924455523158
H         4.09013213795130   -0.96909062488647    1.33203232844662
H         2.36840006572684   -1.20657112853896    3.67756599407218
H         2.61951084501788   -2.37528583925817    2.44957932412490
H         0.15126722995673   -3.11941248887381    2.42283763899087
H        -1.06590876440841   -1.90266694786214    2.19031160792976
H        -0.17761225390985   -1.92546965448902    3.63727938373062
H         0.23651839147579   -1.45581089642799   -0.20828757834609
H         1.29135199142560   -2.66330376487567    0.50716374358492
H         2.01420142793539   -0.67246922847947   -1.39236813385177
H         3.58201537180775   -0.84960262371085   -2.46424406406618
H         5.00032080039765   -1.90090836311534   -2.15732134186598
H         3.58695830262712   -3.04619421401244    0.76279351529628
H        -1.38911119703385    0.40886874302350    2.03420276498065
H         2.46173737766290    2.86915304556121    3.28617085497064
H         1.28647571036526    3.01795904097888    1.92234373648824
H         4.56316590774494    1.30140753929763    0.46973809267975
H         3.45490944505378    2.19324204394233   -0.57247810407045
