38
 energy: -53.124908442755 gnorm: 0.146938807104 xtb: 6.4.1 (79825abcba525fcdf90b791dcacef51065a7a4e7)
C         1.20852361697512    1.32984240476261   -0.01196065664413
C         2.51304765659343    0.38364164784716    0.32840688317146
C         3.26661515893980   -0.37797601897351    1.67039795434059
C         2.41516853009877   -1.43889609358638    2.44982692183104
C         0.98425733761300   -1.24492098263974    2.01313123544945
C        -0.03508789458747   -2.08197108934065    2.77416446325195
C         0.98172765690360   -1.51504119265335    0.33506143825011
C         2.21776383792491   -0.89817387033362   -0.44819656647328
C         3.42271702392722   -1.77332814362144   -0.75319175809228
N         4.28581002313054   -1.16818294826763   -1.62993327500448
N         3.67592338813316   -2.99066917008630   -0.37253636703779
C         0.68206081825502    0.30951983524286    2.44616687114256
N        -0.46978290462403    0.90005329166054    2.32302609446275
O         1.75109011462398    0.98918959913586    2.83261668335833
C         2.24547919459356    2.28789885298859    2.38226217129404
O         3.37350523433726    2.31166907782722    1.47317603358652
C         3.54552096247336    1.48602584718072    0.28295798547603
H         1.11414581744585    1.32486614427129   -1.10249567511819
H         1.42437893073368    2.39822120729185    0.14525720728914
H         0.19830032142506    1.10300378724329    0.31133516949101
H         3.57410819745744    0.40730258723226    2.36576173052125
H         4.09282356081791   -0.91894780948957    1.18151306185510
H         2.63428595046196   -1.37267244547809    3.51965361052397
H         2.73588427327115   -2.42346555436968    2.08620606466177
H        -0.19726182776962   -3.12578988405275    2.51029613597225
H        -0.99763848682440   -1.56113588215081    2.63010676651323
H         0.21071516583358   -1.93625876440553    3.83178654670670
H         0.06694804935278   -1.03864940962589   -0.03405722423657
H         0.96306865011019   -2.61548865637326    0.25276664706114
H         1.84366990196214   -0.68725763252628   -1.46485084331365
H         3.94104964718734   -0.40523065552429   -2.18017840404568
H         4.98335041676865   -1.75171222435201   -2.07816923054620
H         3.03757129553516   -3.30257496845370    0.35640502724900
H        -1.19354357115681    0.21610640441741    2.10355884240487
H         2.77177493193106    2.86991886811241    3.14600435764757
H         1.33791505379026    2.84116714897474    2.12217319573228
H         4.61288201181662    1.29425590759080    0.15389182574850
H         3.45615585688680    2.18093241921330   -0.55923770819290
