38
 energy: -53.130931856554 gnorm: 0.151822095474 xtb: 6.4.1 (79825abcba525fcdf90b791dcacef51065a7a4e7)
C         1.16331578716079    1.05705403346017   -0.04983656833995
C         2.58878094002876    0.30352576773646    0.28657563838093
C         3.23103070662145   -0.31626474785273    1.75362724904783
C         2.28671735412036   -1.27192902475876    2.56171162572238
C         0.92559384362368   -1.06777426894964    1.94405481945332
C        -0.07890761699612   -1.98001644039731    2.63519893104949
C         1.13367643443622   -1.63390641550482    0.35500304041993
C         2.30354470033881   -0.97756862474459   -0.49495740425656
C         3.51839315464712   -1.85589046214384   -0.74699552925886
N         4.42961431333883   -1.26318484319286   -1.58256836537788
N         3.75389287075262   -3.07973350372426   -0.37594398011424
C         0.67556513476413    0.50404227210792    2.34655599780842
N        -0.46092786221288    1.11099587577098    2.17154645274910
O         1.65728725622723    1.10282830438217    3.00366711813596
C         2.20534560985973    2.35006995808148    2.47649942822169
O         3.25521681296320    2.24281310596402    1.48366923321645
C         3.42647440502357    1.55860398701782    0.20678870958858
H         1.24811204889427    1.39556498676678   -1.08734246720222
H         1.11033787553874    1.99582440371902    0.52344152948449
H         0.26982359313410    0.44396905346924   -0.00161239807884
H         3.70606038626021    0.50409462974086    2.29778028712323
H         4.11792262596384   -0.90031705302048    1.45937418636598
H         2.39043258355320   -1.11968429454152    3.64013262479608
H         2.62946239880855   -2.29452778432881    2.35855319662344
H         0.31876235991836   -2.97706181537728    2.81752739265814
H        -0.94202952397275   -2.10330330522987    1.95818601125248
H        -0.27766787815162   -1.57147370517029    3.63209555955108
H         0.17728784909077   -1.54810268011080   -0.17223317179918
H         1.31377919536414   -2.70193954060255    0.56707247766520
H         1.93925396634406   -0.73489130392095   -1.50808021199635
H         4.07124577159148   -0.53383888663321   -2.16853089399406
H         5.13745443209741   -1.82681010296526   -2.04003248401092
H         3.13208623808148   -3.36305271018434    0.37852332628485
H        -1.22216709518294    0.53158449472618    1.81859320667626
H         2.74277589623473    2.84109650316257    3.29448368754322
H         1.35258241094715    2.97598458720378    2.19640916702638
H         4.50776482905452    1.40531125284543    0.20438994604935
H         3.13302396367992    2.19440707259611   -0.63571714668139
