38
 energy: -53.121586459996 gnorm: 0.143978788938 xtb: 6.4.1 (79825abcba525fcdf90b791dcacef51065a7a4e7)
C         1.18612052361775    1.21388146709170   -0.02609855470074
C         2.55892066984741    0.36329626619789    0.29771231836076
C         3.28510208107590   -0.38219816578508    1.66364206644411
C         2.37216766182580   -1.28409675576458    2.56428180964931
C         0.99781505890798   -1.15812316834297    1.95508408870238
C        -0.01049124436791   -2.05355153155914    2.66248466754409
C         1.12508086966341   -1.53376265776062    0.30233247089595
C         2.30947232854402   -0.89093082799548   -0.53777938792682
C         3.48366279315604   -1.83994818347049   -0.71518304175769
N         4.70499737425729   -1.33450119261795   -1.07942347332969
N         3.47461426654761   -3.12696227955406   -0.52959206861706
C         0.62244397080369    0.37817817678155    2.39554239889806
N        -0.54974080311200    0.89336403090005    2.62182481486594
O         1.73940254049737    1.03944916493524    2.65868170920929
C         2.09093280717494    2.40311114890723    2.27043187239068
O         3.20821156472435    2.37879534628183    1.34818337037986
C         3.42711708700136    1.59004842395975    0.14076719245929
H         1.15026178416003    1.10716555727813   -1.11491645798237
H         1.22196859062001    2.29578807914509    0.17623097130035
H         0.26462185731017    0.86035167618699    0.42377248832908
H         3.81104141851537    0.42029252140756    2.18722753657475
H         4.01077316269417   -1.03333564610766    1.15012410363070
H         2.44063182392942   -1.00348239133349    3.61950471947728
H         2.76570641706608   -2.30003480150433    2.43217251962152
H         0.32391403808771   -3.07801347240123    2.50712895408966
H        -1.06060484306067   -1.86174267462694    2.38142176176865
H        -0.15975807873168   -1.78236216751203    3.71338496216994
H         0.15368011693785   -1.18128556108223   -0.06120558008044
H         1.24694802577576   -2.62568221267971    0.19761720924474
H         2.02918790628762   -0.73072320408788   -1.59314283284343
H         4.84280645930661   -0.48382610441086   -1.59038938622914
H         5.34035759096881   -2.09837812059425   -1.28139853479902
H         2.51818336998306   -3.40990430046081   -0.32632393413191
H        -1.40628578300079    0.40774961372536    2.35670589795983
H         2.45177151714124    2.88995528558732    3.18247070902241
H         1.31447591669012    3.03360982520675    1.82657281291758
H         4.50393228657349    1.43526245510657    0.04483114159431
H         3.07026332861578    2.22997122170904   -0.67368296531587
