38
 energy: -53.124131409156 gnorm: 0.155415387602 xtb: 6.4.1 (79825abcba525fcdf90b791dcacef51065a7a4e7)
C         1.25121208766095    1.24223920418799   -0.08766577692211
C         2.58049709296230    0.35612467285308    0.31324732405026
C         3.31159121737615   -0.31225491144987    1.71597166971661
C         2.38974174928027   -1.30357365357215    2.50685913939531
C         0.97622516360218   -1.09744645812383    2.02176250561367
C        -0.02907650830240   -2.04330900912959    2.66488127105580
C         1.11562476181345   -1.57397193464960    0.39622235067490
C         2.29170488293510   -0.93166337984699   -0.45588040834189
C         3.46630860739858   -1.84231858349985   -0.77500803397463
N         4.28195938153534   -1.37810461860658   -1.77452048282417
N         3.87380123118001   -2.95294750511985   -0.23520776703535
C         0.57559617770243    0.44656613624021    2.40989953705411
N        -0.64338907451302    0.89884561236862    2.42237336056041
O         1.59072807789949    1.13662997971436    2.90733013251081
C         2.08127357850007    2.35289437530733    2.26393949155355
O         3.23762977806908    2.27639960214699    1.39420719355003
C         3.55883951314994    1.50216948235522    0.20035326741161
H         1.35174023427788    1.25349835837223   -1.17760425468322
H         1.13909997320542    2.32392583958909    0.08591166654049
H         0.21346702160808    0.95753029300742    0.04854387257474
H         3.72922949176401    0.42200607990574    2.40964616236034
H         4.14984465403997   -0.86844130214459    1.26623050775858
H         2.56603413333897   -1.06687901461705    3.56034089290341
H         2.76240651905252   -2.32066410137736    2.33049666779415
H         0.35782484746165   -3.06100334548576    2.67437557307922
H        -1.01305663770565   -1.97791991748167    2.16886419171892
H        -0.13445603211544   -1.86972439299913    3.74144024864075
H         0.11979987825010   -1.31549164327306    0.02000407733342
H         1.29622041489759   -2.65781549372988    0.50001814425407
H         1.79922097537138   -0.78675303110360   -1.43285453520643
H         4.28915805460491   -0.37634705963603   -1.78699440211547
H         5.21935127002726   -1.76161063860694   -1.72757292602874
H         3.14339440221554   -3.48281311326687    0.23583626265729
H        -1.36746439009553    0.20072006521607    2.25469994803229
H         2.58200018971076    2.87175469610899    3.08801076501480
H         1.17047656946523    2.85221958452058    1.91963163636407
H         4.57349705334810    1.11449596122288    0.31381128460344
H         3.41063356085171    2.21706650912599   -0.61642827650281
