38
 energy: -53.125517076339 gnorm: 0.155774475147 xtb: 6.4.1 (79825abcba525fcdf90b791dcacef51065a7a4e7)
C         1.10191472629392    1.01339483499481   -0.09619275032434
C         2.56099501114349    0.34442224164326    0.27325183449452
C         3.29752735175820   -0.23729987947629    1.71130084140432
C         2.46463359450624   -1.28282968702238    2.53055518136211
C         1.05684576837848   -1.09733972202925    2.02108174877223
C         0.07945146259309   -2.05326689448788    2.69174765058310
C         1.12747042948449   -1.61790500425710    0.40463086020798
C         2.25972705449214   -0.94736897216113   -0.48428993884960
C         3.46842505312936   -1.85925027819394   -0.61975536380481
N         4.43901370093262   -1.25643650459258   -1.37763341907459
N         3.62993153616054   -3.10722905700018   -0.29204240645234
C         0.59398581651931    0.45359154320345    2.29585739389752
N        -0.59975313687479    0.96883173824766    2.28352108309054
O         1.62368391272052    1.12280527328446    2.79183407611765
C         2.15907652908610    2.38697226060814    2.29271281357561
O         3.28601788992173    2.33003128517175    1.38375392629200
C         3.39549417519956    1.59576121475543    0.12806385485098
H         1.29351626728572    1.35990378191207   -1.11669211873492
H         0.85972059854714    1.93009926901058    0.46393154345678
H         0.24169984604182    0.36301295819795    0.02025825066509
H         3.79303554990821    0.49919539109483    2.34910297904441
H         4.07983729515350   -0.90046794169509    1.30821461102091
H         2.61461646589997   -1.16967517129911    3.60834381559607
H         2.76694925229893   -2.30560551814761    2.27172981470913
H         0.57165201085314   -3.02326841888653    2.64357891385065
H        -0.94083028966078   -1.79307058230120    2.36031350260783
H         0.06945271948026   -1.68132639177682    3.72217279945784
H         0.14979626641251   -1.49287852429353   -0.07342880186829
H         1.22898499848235   -2.71576490056570    0.45466729219243
H         1.97341373241912   -0.70129381947794   -1.52134805675167
H         4.41190293430344   -0.25836193814249   -1.46032431269955
H         5.23936038315516   -1.75357893770353   -1.75217189953190
H         2.83538654112397   -3.59354712825916    0.11823451887395
H        -1.35118847272724    0.34144395394901    1.99802465081620
H         2.50854530954127    2.90289935679050    3.19311684933969
H         1.32155679504501    2.99329076454372    1.93443455322291
H         4.43663949977239    1.36997638110984   -0.11220893243235
H         3.09219595540703    2.29666477994915   -0.65737820235615
