38
 energy: -53.123471371504 gnorm: 0.159725148722 xtb: 6.4.1 (79825abcba525fcdf90b791dcacef51065a7a4e7)
C         1.14403499351407    1.14527297150932   -0.05708374695201
C         2.53077832678204    0.34834074053334    0.33632553686844
C         3.27991166682181   -0.39222813898229    1.69250489810769
C         2.39379375589892   -1.34447330671343    2.56774570296046
C         0.97568372049730   -1.17459356969204    2.08200801267379
C        -0.12021721915969   -2.05125030317062    2.67307759369137
C         1.17100550762706   -1.64091465385507    0.45926846765438
C         2.26239437604793   -0.93268205766091   -0.45127025723219
C         3.50917220390260   -1.74744770359103   -0.75545975052770
N         4.30618570596691   -1.34018280109551   -1.79406973313054
N         3.94649663278014   -2.81581406976638   -0.15690162799568
C         0.67113208551390    0.42650509394938    2.27913798309067
N        -0.55406004120989    0.84202713427064    2.40907285749024
O         1.67307632722250    1.13499661644692    2.77740055295566
C         2.14846420114458    2.41739404451287    2.26422544706803
O         3.29267868004800    2.38140527135682    1.37601183758424
C         3.48592653911256    1.51341552062056    0.21966231436742
H         1.31876368881239    1.31726536173536   -1.12389538236257
H         1.12302851783187    2.18361807964967    0.30917081732271
H         0.20326054230687    0.64896119710859    0.15539005493544
H         3.44388277218383    0.39756623591425    2.43012510298233
H         4.15963208508680   -0.94040884340302    1.31851407753881
H         2.49522715347072   -0.95309552524537    3.58433896655784
H         2.69560130545692   -2.39809738054330    2.62470394838219
H         0.17128487969275   -3.04385407811952    3.01256077161798
H        -0.97507631392411   -2.16762877548391    1.98445756292009
H        -0.64837945345980   -1.54178917461899    3.48653300349461
H         0.16143878192061   -1.47590448214360    0.06739333159550
H         1.41348761491663   -2.71126449979077    0.57613955579173
H         1.80488512281244   -0.72254420128475   -1.43338288364952
H         4.09519358003881   -0.65694603061944   -2.49577868505760
H         5.11065160337443   -1.94311347430971   -1.92557529402815
H         3.34621617460372   -2.96489671093350    0.65153632341372
H        -1.23616523707922    0.14690135470292    2.10689513878751
H         2.68320572933753    2.93964310065453    3.06444045279015
H         1.39941717162817    3.10139382967082    1.85374086327816
H         4.53234127899319    1.21942728523547    0.32587207044802
H         3.21145699768451    2.08998453770859   -0.67051154261146
