38
 energy: -53.132160911259 gnorm: 0.156374484393 xtb: 6.4.1 (79825abcba525fcdf90b791dcacef51065a7a4e7)
C         1.12914988261456    1.04273512124690   -0.02714370652275
C         2.54734205300409    0.30490127344545    0.36941787643236
C         3.29622130336229   -0.34483911254288    1.77151728799348
C         2.39787900394833   -1.30764375368069    2.62240541355508
C         1.00667900994897   -1.11237526629921    2.07261538878397
C        -0.04065705300570   -2.05131546331728    2.65602570958579
C         1.18423994307393   -1.63855736504483    0.46622376431116
C         2.30435522860644   -0.96859349652461   -0.43837227278287
C         3.48563103041740   -1.87016079862553   -0.75867388554678
N         4.50332263332814   -1.17612463176603   -1.36069009810086
N         3.56624941427548   -3.14665763696841   -0.52417940960342
C         0.66265568343556    0.47359054919195    2.32058546236620
N        -0.53874022188981    0.97075032874895    2.30975160499065
O         1.67337171161270    1.22174036019952    2.73632939609539
C         2.12931514259662    2.49212739177303    2.17765432032809
O         3.33416936091716    2.41171660556056    1.37683861735319
C         3.40292735825607    1.54006156765196    0.20919784178275
H         1.15781031759947    1.15326414963262   -1.11579446460991
H         0.93211895003083    1.98673413159657    0.50463530678031
H         0.29591171646324    0.35099904872513    0.03403167638858
H         3.75683951722649    0.45858996960998    2.35210130700994
H         4.20112285802424   -0.77855315865376    1.31618824724791
H         2.49554322100595   -1.07396679289342    3.68672863950264
H         2.91078386034548   -2.25010852178537    2.39187451427526
H         0.38875702042399   -3.03553862093456    2.47604545761861
H        -1.00888781390338   -1.94271706647135    2.13712191583487
H        -0.27857934232043   -1.95382706139884    3.72096921783204
H         0.20578714242126   -1.54660011000520   -0.01771157972811
H         1.33422759172018   -2.72513556120973    0.58852149471547
H         1.83038290088214   -0.86340204978536   -1.42948419019322
H         4.18870897803658   -0.30494100490099   -1.74250544582751
H         5.33667834541516   -1.69692636772663   -1.61022626182969
H         2.85406500450345   -3.54864039970812    0.08190424782054
H        -1.30652172029155    0.31236273950852    2.18007483859470
H         2.53738449953835    3.07146325434380    3.01245129306666
H         1.32247901398114    3.03529322627223    1.67624522220915
H         4.48118378450205    1.37108459819979    0.17042599795703
H         3.13284863708826    2.19310585596081   -0.62791952436984
