38
 energy: -53.130621710730 gnorm: 0.144186458788 xtb: 6.4.1 (79825abcba525fcdf90b791dcacef51065a7a4e7)
C         1.21619522053761    1.13921901593507   -0.11401312574555
C         2.54678506530422    0.31761919619967    0.40312639252808
C         3.28739923471281   -0.35731101404695    1.79769633458474
C         2.42869113538560   -1.33622609211360    2.67083316757723
C         1.03081831823658   -1.17501086581391    2.12696047727882
C        -0.13433013715949   -1.98894351460368    2.67361562990175
C         1.21756983450406   -1.80138390283845    0.55798940475807
C         2.29149938237627   -1.01158577976236   -0.30496948684706
C         3.52941449615837   -1.77795074404404   -0.74209661456916
N         4.19932433448661   -1.01344904994305   -1.66218567189888
N         3.87863702082650   -3.00708203940923   -0.50082699005731
C         0.63588853736266    0.40966751507923    2.29415403625904
N        -0.51106675169311    1.01855528730836    2.22792273535121
O         1.65508216898786    1.11417372399896    2.76216408397807
C         2.09576115111883    2.40087740118871    2.22917145372941
O         3.20175340650756    2.48537603498990    1.29692337960456
C         3.56083644457955    1.43657587976137    0.34878164820291
H         1.37903851103888    1.12349927410018   -1.19634094602421
H         0.99523728075161    2.15102024021636    0.26039320245644
H         0.36741726786549    0.48333393651200    0.04697697642456
H         3.73484547013165    0.43640729631310    2.40147472137954
H         4.14446941926139   -0.85136578018437    1.31228947621147
H         2.57764964698975   -1.08601181868302    3.72540953944026
H         2.76420996533584   -2.37247185917354    2.53638039072196
H        -0.01248698468729   -3.05653715814424    2.49788112886920
H        -1.06496979349025   -1.67600035010821    2.16913374306542
H        -0.31249856067656   -1.70815123520388    3.71746782121484
H         0.23831923546924   -1.74233905922213    0.07054566499953
H         1.53608149848805   -2.85531349419466    0.63472226539849
H         1.75064010587395   -0.85136880774122   -1.25355770593809
H         3.77766676838309   -0.33652439426687   -2.26857129238513
H         4.93289474131900   -1.54482052906919   -2.11771097075869
H         3.23446948556416   -3.37853036150659    0.19430501774016
H        -1.31249523330800    0.44681992125145    1.96219774811977
H         2.46234409998035    2.89027936523327    3.13754323151400
H         1.21095305124653    2.97988398049981    1.94758531190513
H         4.56280096270831    1.10596783726243    0.63066604903029
H         3.67566774918834    1.87857154429343   -0.64702377595112
