38
 energy: -53.122707641011 gnorm: 0.173625640533 xtb: 6.4.1 (79825abcba525fcdf90b791dcacef51065a7a4e7)
C         1.07818171006726    1.01620455967034   -0.03418776679770
C         2.55917872474543    0.35002792870964    0.24110374899771
C         3.27929199213717   -0.31584022552224    1.65068593094374
C         2.41111496829200   -1.19214568386426    2.61835304710564
C         1.01994703833087   -1.12961451700030    2.03819970581904
C        -0.02010805970167   -2.06450162559753    2.64082777125453
C         1.20604656911849   -1.65690376882296    0.43313817859951
C         2.23676212742752   -0.92828269291137   -0.53046991768994
C         3.48276375519536   -1.78020926443709   -0.71083148245195
N         4.39478124443455   -1.27907696585894   -1.60352203781983
N         3.76342052587407   -2.95565316334734   -0.23073297553269
C         0.62140703360619    0.43860461505680    2.31565846702524
N        -0.57745255611947    0.93609999190744    2.39228329558152
O         1.60000431468129    1.19248400685177    2.79328935560816
C         2.15391848116107    2.39451605839467    2.17507943926903
O         3.42852134222377    2.28707496195735    1.49442584205774
C         3.48788091977653    1.54201343378816    0.24172679682071
H         1.19591035856103    1.18759642197032   -1.10887998167629
H         0.83907429501255    1.99435617818295    0.41167239584161
H         0.21901689540825    0.36906571057194    0.10572000206495
H         3.91826729031002    0.36272845778200    2.22165031828373
H         3.99446190539754   -0.98494372527011    1.14560006336980
H         2.44117100420333   -0.77349374535408    3.62867692296815
H         2.70595753984779   -2.24924934583454    2.61090810300794
H        -0.21433996586480   -3.02203399213971    2.16031734034344
H        -1.00050880942092   -1.56177489504144    2.57296198241998
H         0.16916694430584   -2.27036877672811    3.70007720707683
H         0.25406014694045   -1.63267304335367   -0.10829893638877
H         1.43031499364838   -2.69963469256934    0.71690057176861
H         1.82437178036967   -0.80878800771996   -1.54716704040095
H         4.24245530261753   -0.31753871382760   -1.84009468605949
H         5.31374268778213   -1.64130165001945   -1.83218690711939
H         2.99358872930887   -3.35192348309286    0.30448942201838
H        -1.36194102898804    0.33581436908360    2.13927397955084
H         2.43110940809303    2.99541566290555    3.04750220566718
H         1.25667802611161    2.86314380064097    1.75942050486191
H         4.52345594253098    1.20751083147197    0.15015295246801
H         3.30193271244425    2.29708587107005   -0.52993615579529
