38
 energy: -53.121916887005 gnorm: 0.152185984521 xtb: 6.4.1 (79825abcba525fcdf90b791dcacef51065a7a4e7)
C         1.08227839518667    1.19417334202798   -0.17422003400792
C         2.45771386279006    0.41753828855524    0.29262488174844
C         3.27295565767042   -0.35581120171436    1.59115360932672
C         2.46799372726944   -1.35976058424006    2.48677864086803
C         1.04048452320160   -1.12636993712574    2.05831328079812
C         0.00606497163613   -2.11811981390447    2.57338367390513
C         1.09504156520219   -1.56008273374835    0.41581326551931
C         2.19236473832021   -0.86324668042113   -0.49638475231066
C         3.38169900021607   -1.80192567372648   -0.61965296669324
N         4.43260002562292   -1.24162465220516   -1.29897302307649
N         3.62268385673543   -2.98772034226614   -0.14347181282996
C         0.74055213350735    0.44183675017235    2.44027812965514
N        -0.46131990554559    0.93792120048477    2.43386197062636
O         1.81647200237700    1.08325019054305    2.87051445611863
C         2.16746669791166    2.36797937574352    2.27038186523356
O         3.32654065548868    2.36192207619026    1.40092441731763
C         3.38601337404380    1.60211259703647    0.15712068806750
H         1.18354858552526    1.31609316050424   -1.25730750283622
H         1.07727876370895    2.24109303041680    0.16736218297717
H         0.10772924462312    0.77667862525672    0.05486329582203
H         3.82390992873257    0.36619240170461    2.19935211411117
H         4.04112265206921   -0.90339550183057    1.02163614748978
H         2.60847486559769   -1.14841918578120    3.55098116673318
H         2.72590437548258   -2.41150471829951    2.30853133723067
H         0.56476199773846   -3.04852519569466    2.66106505400381
H        -0.85453145093395   -2.37783069227124    1.93272025579639
H        -0.33877720215026   -1.95819680666607    3.60086807307056
H         0.07014260801630   -1.46994886711259    0.03967837428563
H         1.20269210183742   -2.65849819852148    0.41601170613949
H         1.94507537576894   -0.76020047636414   -1.56701414849037
H         4.31818840880773   -0.59328919568846   -2.05415296243725
H         5.22864072116319   -1.86653282544129   -1.36056426286507
H         2.73715071764135   -3.16122008335199    0.32755163447489
H        -1.09439155093185    0.22320392934740    2.07584209306566
H         2.60121487329207    2.88297001881391    3.13391170976164
H         1.28173965636434    2.80738530902445    1.80151643925634
H         4.44167609846013    1.35290888654628    0.02997068208513
H         2.98006636638963    2.30853090628594   -0.57524196576885
