38
 energy: -53.128309493673 gnorm: 0.161962844053 xtb: 6.4.1 (79825abcba525fcdf90b791dcacef51065a7a4e7)
C         1.17082015515326    1.20067969402263    0.00915058291453
C         2.56599435067094    0.38959147342320    0.33862555812249
C         3.36284936756907   -0.37311834531776    1.65474154018900
C         2.47812354106746   -1.49289484112783    2.30388180929336
C         1.04154996778817   -1.15933580948168    1.98634277799602
C         0.08424457437756   -2.04229289510726    2.77554637976146
C         0.98022574316844   -1.47331630611394    0.31704797072623
C         2.24874562773779   -0.88729636884406   -0.43743314955626
C         3.36106641358648   -1.86227933460044   -0.78811806471595
N         4.47728609850612   -1.20890198018416   -1.24304393944809
N         3.32429178375265   -3.15695978126243   -0.67244040815989
C         0.70817373025368    0.38923277258475    2.41753235905273
N        -0.46755581145498    0.94447676430836    2.41630175205813
O         1.75007713752930    1.07827699414629    2.85772938309068
C         2.18544695302430    2.37983400717435    2.35744152973177
O         3.28025385230381    2.49355166302884    1.41515096075893
C         3.47245382715235    1.59717927349702    0.28048323420789
H         1.06936500029544    1.15193084700929   -1.07966940153785
H         1.06768242113888    2.25726091964831    0.30196956419050
H         0.23700825962111    0.75797279571834    0.33859405949794
H         3.76147150326608    0.33629207730471    2.38452402593702
H         4.16637509969524   -0.93912743190464    1.15648523517995
H         2.65604731038312   -1.42577770217813    3.38127012520264
H         2.65584908337087   -2.45208177726786    1.80105998240601
H         0.66405012154756   -2.95746894650146    2.88400325129475
H        -0.92216158039587   -2.16491771862874    2.33892827272219
H         0.01718233132750   -1.61045895907001    3.78015466365423
H         0.00783806824738   -1.18130674527143   -0.09430596030936
H         0.97468464513419   -2.57634908289832    0.35437356391392
H         1.86280760713575   -0.71406627539874   -1.45677657868498
H         4.39419180130746   -0.35230965092583   -1.75594796086175
H         5.22490683417318   -1.84812102397938   -1.48890312002317
H         2.49167743688088   -3.60725738075478   -0.29811489479073
H        -1.25577034119602    0.35534793138448    2.14904946273281
H         2.69444737874374    2.85836445291886    3.20062822891020
H         1.24256139451718    2.80485304009420    2.00001965526361
H         4.55472883452365    1.45233130697441    0.26065244669723
H         3.33942874165056    2.23834290883394   -0.59780393847272
