38
 energy: -53.130510191671 gnorm: 0.150663561754 xtb: 6.4.1 (79825abcba525fcdf90b791dcacef51065a7a4e7)
C         1.13861265545567    1.25768220621676   -0.09068490684719
C         2.50362581588138    0.42062886294022    0.29533276081646
C         3.34646125137537   -0.23910213186944    1.63818378633676
C         2.53330731623266   -1.37446664211100    2.35074982084377
C         1.08072959337094   -1.20868787181494    1.97876646978376
C         0.13631154467472   -2.15909636715791    2.70242893032475
C         0.95766140083007   -1.48736256420135    0.30661690371013
C         2.22202757013423   -0.88653168970101   -0.44317257254239
C         3.38842303156451   -1.85533607855679   -0.55165708432665
N         4.55452701788319   -1.30708056364829   -1.02008346219831
N         3.34617319902558   -3.11752012562296   -0.24175786557880
C         0.70596359986224    0.36387736709744    2.26462974014720
N        -0.51212584842816    0.81081001505853    2.34916757804066
O         1.69628167596893    1.10639186100435    2.73586257084015
C         2.14090951111594    2.41562908423102    2.26459890758455
O         3.32250317989905    2.35734848392288    1.42800752675887
C         3.42014637627915    1.61601450800522    0.17549609648454
H         1.12041928337066    1.09208999634183   -1.17255679405176
H         1.20245168229463    2.35682919001162   -0.06734581865452
H         0.16077395828495    0.94157583077368    0.25635296985566
H         3.77658946779502    0.48321376523136    2.33674994435824
H         4.12639656156730   -0.71463820852282    1.02186764717699
H         2.61311110750288   -1.20116452493775    3.42802642580568
H         2.87335786810523   -2.38920080217576    2.10757103166024
H         0.50150879257709   -3.18200945880618    2.62650572976281
H        -0.80251941620549   -2.15704612238940    2.12181047554546
H         0.08567353234446   -1.93082071765942    3.77272874827069
H         0.03158262933465   -1.02099511810553   -0.04679354414612
H         0.85489388543336   -2.56435207000016    0.08835643645295
H         2.00491964567266   -0.72635650385187   -1.51332484445713
H         4.57951070100332   -0.36333262830737   -1.35540608425292
H         5.24517933372018   -1.91632495124105   -1.44411781520490
H         2.41852061357706   -3.31880820792845    0.12577167818942
H        -1.22163898783593    0.08602742106718    2.24400100557978
H         2.41284047005288    2.99642306268407    3.15216216093083
H         1.22658265383273    2.84114763915334    1.83990477798608
H         4.47298704411153    1.33422654629003    0.10610256750072
H         3.33316275555397    2.25072337563809   -0.71318457138576
