38
 energy: -53.132263726483 gnorm: 0.147294725924 xtb: 6.4.1 (79825abcba525fcdf90b791dcacef51065a7a4e7)
C         1.19347291635789    1.18053429900008    0.03259167915649
C         2.56693593450117    0.34984960864234    0.40203881693304
C         3.31675079322359   -0.47166075025751    1.71038276119909
C         2.36620650970530   -1.39783211033800    2.54506499992069
C         0.96987830296138   -1.12725208644838    2.04218305509160
C        -0.10244686138943   -2.03035987317905    2.63666113044422
C         1.08745441355271   -1.52304492026677    0.39342188550612
C         2.26466508127684   -0.87794190728069   -0.45500073527122
C         3.44090262838306   -1.74774161531773   -0.86821124170435
N         4.06984193807070   -1.14830618092541   -1.92883295318182
N         3.79071564688464   -2.91909410341227   -0.42493328316825
C         0.65837948340744    0.43733272844777    2.42970286529090
N        -0.55388805187442    0.90671211217794    2.45667965705865
O         1.70691032524529    1.10704443072869    2.88378143263507
C         2.26537476812651    2.33538728591331    2.32415946126124
O         3.44416536683307    2.23156227749886    1.48802642237863
C         3.57915504274367    1.46223960608319    0.25602984240776
H         1.44985693392395    1.30463706577971   -1.02432094926702
H         1.08930307858741    2.08563117824182    0.65121314996156
H         0.24905811134997    0.65527917172122    0.12594470658363
H         3.80301193222652    0.28980826588134    2.32557401168117
H         4.09130910355744   -1.09952908380005    1.24121327007591
H         2.42869224027227   -1.14385351149259    3.60738207083780
H         2.66731148587087   -2.45267580470522    2.51195473605579
H         0.06747155945800   -3.10440552381087    2.69178112913674
H        -1.04079359390673   -1.76182817293179    2.12098516274043
H        -0.24919919065469   -1.70257411492302    3.67166641533980
H         0.14774692166126   -1.36845868974140   -0.14793968452191
H         1.16689290404643   -2.62253695340212    0.44738479873345
H         1.81311159775740   -0.58117737261082   -1.41731466825781
H         4.06469422732338   -0.15562218104417   -1.79363827450388
H         4.89617806406075   -1.58107229248883   -2.32615723427631
H         3.20137277703159   -3.28051901456658    0.32218196054956
H        -1.17364085088497    0.13826822678142    2.20137752227007
H         2.66891807449116    2.99862943012894    3.09636363216313
H         1.38534685893493    2.84139889146990    1.91559137496832
H         4.59366069889322    1.05878132903220    0.22970321042963
H         3.35592576453238    2.11487449423287   -0.59509367596176
