38
 energy: -53.133037079964 gnorm: 0.148214560074 xtb: 6.4.1 (79825abcba525fcdf90b791dcacef51065a7a4e7)
C         1.16677099255829    1.11227995003569   -0.07288333151514
C         2.59353370539059    0.36447053126979    0.27071258078684
C         3.26922688986149   -0.39599173824100    1.65418695542050
C         2.37731139977582   -1.34375171925985    2.52840664043820
C         0.95253799853328   -1.12735248074626    2.08228061306664
C        -0.07835573239812   -2.04671682667643    2.72330828160278
C         1.12292272895655   -1.61369751211041    0.46261177876656
C         2.29189033210049   -0.97384981635414   -0.40105106810236
C         3.52017137233133   -1.81846772290131   -0.69900330027508
N         4.19789248818926   -1.35182412906361   -1.79570005545334
N         3.98522015245278   -2.89371754474263   -0.13464648113030
C         0.62240710017944    0.46238760334372    2.32490975560549
N        -0.57383850936875    0.96524784055866    2.24265770046225
O         1.62173772325692    1.17435233272879    2.82347029706224
C         2.12818139569090    2.43047036155235    2.27614243872020
O         3.30891813762921    2.33495497599845    1.44176666261407
C         3.48584966833818    1.58215531623494    0.20488224453295
H         1.19636943674653    1.14883538393157   -1.16649486864874
H         1.08548458581835    2.16988888960041    0.22308979333926
H         0.32181867636508    0.53104056376363    0.28030702205463
H         3.70275503251220    0.34854145684778    2.32684505028295
H         4.16655929314525   -0.94571563337354    1.32726581764003
H         2.51855229851896   -0.86348332091315    3.50119667025987
H         2.69123502352322   -2.39044617164584    2.63008462065760
H         0.21109773836240   -3.07463918123652    2.51099509803596
H        -1.07590376102991   -1.99376268637470    2.25360693183020
H        -0.04577136496231   -1.94958575786137    3.81405092193912
H         0.19682116767683   -1.45573074972307   -0.10077249878502
H         1.27988808725208   -2.69820903592351    0.59414827383138
H         1.75047725153268   -0.81519809502108   -1.34958644540844
H         4.13074957251836   -0.42111798294892   -2.16039652906222
H         5.12807552890402   -1.72490123811767   -1.94918449354017
H         3.35994810938150   -3.32549373871099    0.54265579023918
H        -1.28696997632237    0.31336826527603    1.91665885151177
H         2.50635915894429    2.90002812013846    3.19021777722174
H         1.31088070531689    3.03677063654120    1.87384365684256
H         4.53469007754430    1.28546431263230    0.27271768682941
H         3.27839296185644    2.16605363036017   -0.69855526051150
