38
 energy: -53.132252085061 gnorm: 0.154648759612 xtb: 6.4.1 (79825abcba525fcdf90b791dcacef51065a7a4e7)
C         1.17363534183221    1.08175884796968   -0.02361280203017
C         2.59498298166610    0.34730443693983    0.36789264702524
C         3.29344063512473   -0.39189496731389    1.75158575102967
C         2.38122535840611   -1.30709044315902    2.63944992885404
C         1.02295523545013   -1.08914620105061    2.02022552443593
C         0.00067007989097   -2.03585847701614    2.63468305971733
C         1.09445212544867   -1.57010457530102    0.39158905595488
C         2.26333741485904   -0.90010573119838   -0.44901342390668
C         3.42569131163843   -1.79607377290757   -0.84525061122642
N         4.38313298850142   -1.20782642954279   -1.63079272106853
N         3.57480130643235   -3.05846208515999   -0.57125588143288
C         0.68293667208660    0.45951970223385    2.44584279747846
N        -0.54257745662192    0.89325619666917    2.47084494175710
O         1.69234573572434    1.18500085831861    2.90288598137812
C         2.20625304489749    2.41025123678265    2.29580588536710
O         3.39264902944807    2.31466739245824    1.46950469216134
C         3.48597016998568    1.55934973615440    0.22504434750760
H         1.30037156465285    1.56448086239706   -0.99783862088140
H         0.81217342621859    1.93278835063820    0.57458307428228
H         0.31872017041032    0.42083009996760   -0.11752926053407
H         3.78314446956490    0.37968595719197    2.35125087851454
H         4.00682552319525   -1.09093569168062    1.28607173032068
H         2.41688674834466   -1.09660492085135    3.71246030234248
H         2.69770597910574   -2.33955762028075    2.44372748595779
H        -1.00038201321479   -1.71139140056559    2.35521860201803
H         0.08981622304324   -1.96191551426949    3.73245852566778
H         0.06703380253207   -3.11808350416595    2.47783750960096
H         0.10275587798245   -1.54849376809853   -0.07326677898223
H         1.36970941544250   -2.63407780323459    0.49307600472960
H         1.89191393838606   -0.68271818414186   -1.46528361073779
H         4.11003713183592   -0.56808060628302   -2.35181252129271
H         5.05164847615943   -1.89282015520496   -1.96524022098830
H         3.00884526138952   -3.43217830833122    0.18779886773524
H        -1.34261466194658    0.33507570638744    2.17393803255999
H         2.69165237008799    3.01134776067951    3.07176148434880
H         1.37710981924815    2.93409801249706    1.81049071751732
H         4.57541654607826    1.50482382619394    0.17187572651656
H         3.17467020865187    2.19044298596793   -0.61459157720838
