38
 energy: -53.126135375786 gnorm: 0.170621030913 xtb: 6.4.1 (79825abcba525fcdf90b791dcacef51065a7a4e7)
C         1.10906861352754    1.08069371351103   -0.10023912403581
C         2.51082542916167    0.36084798957140    0.37916557803279
C         3.29731511855291   -0.34793746991062    1.73117246617730
C         2.34608566513430   -1.26870816315192    2.57103325441606
C         0.97073112816938   -1.11598478595817    1.97027391447207
C        -0.00100958976386   -2.06248545908053    2.66218837331055
C         1.15278780270214   -1.64614373121410    0.36569407934607
C         2.34864641425603   -0.94020576736674   -0.40461600597515
C         3.55051042073301   -1.82781543529846   -0.68479673645249
N         4.19603172339849   -1.25020238751631   -1.74756262774781
N         3.99121836692340   -2.88959047317498   -0.07706206105648
C         0.61394933117116    0.46655526648373    2.22207261296509
N        -0.54565466256656    1.03235537175727    2.38277793654034
O         1.61238980324489    1.08999781198639    2.82915919328007
C         2.16578879972101    2.34290918672535    2.32137171154377
O         3.25307852134103    2.36876152795833    1.36399085755888
C         3.51361165243317    1.48203763628827    0.23539066551181
H         1.35597100976152    1.21480830913520   -1.15818574141221
H         1.00946943648465    2.11833043192171    0.25491476358021
H         0.20396979454376    0.50426698532057    0.05804989513889
H         3.71850313644665    0.36906390164012    2.44057709190279
H         4.05060625642952   -0.97888375334504    1.23243557454230
H         2.32671487827696   -0.97522056980293    3.62479649617346
H         2.72385820259702   -2.29507902122812    2.47989320207408
H         0.41666701713359   -3.06502842645041    2.58512725592233
H        -1.02653205823481   -1.93066838102743    2.27559621444010
H        -0.19200904816179   -1.81500811982182    3.71218354811903
H         0.17308747233080   -1.46228174827754   -0.08862021874187
H         1.39202092627847   -2.70172237445709    0.58162568481379
H         1.88282796090063   -0.74309376494285   -1.38552266958218
H         3.66251749984486   -0.62656409454955   -2.32216116121331
H         4.98244321913544   -1.77700697264276   -2.11090596075181
H         3.38575502840197   -3.21693894048984    0.67286546997760
H        -1.22765981601345    0.44125786411355    1.90817132970789
H         2.66298986235893    2.93340786104951    3.09799198665050
H         1.31487736725765    2.89005386420990    1.90423001646075
H         4.55268480117348    1.20800957661501    0.43014439039776
H         3.36238178570312    2.07171174736713   -0.67542700200404
