38
 energy: -53.128502369561 gnorm: 0.150322790442 xtb: 6.4.1 (79825abcba525fcdf90b791dcacef51065a7a4e7)
C         1.20559008398083    1.25159838304329   -0.00712794336586
C         2.51877100048412    0.32859940219994    0.36240916822459
C         3.24624690608705   -0.51105098964492    1.67184855878033
C         2.33727273315219   -1.41761393531914    2.57181069815842
C         0.96536672579130   -1.16096010333563    1.99923844240932
C        -0.21721841155388   -1.97033165640683    2.51431047323385
C         1.13297072070458   -1.65401799195574    0.38131003143530
C         2.26694700343437   -0.93144991338680   -0.46355504016424
C         3.42820789644640   -1.79646442542823   -0.92621288976027
N         4.21899792561659   -1.25638838758998   -1.90742383931980
N         3.85247794335491   -2.91000821983533   -0.40568784684629
C         0.75604003199084    0.41900639073450    2.39296038857573
N        -0.39467903128606    1.02415837512260    2.40951461566575
O         1.78128525152280    1.07109166124341    2.92000410346565
C         2.28385364173588    2.38463716957085    2.52515138348421
O         3.41035566511361    2.27539255031791    1.62043917744171
C         3.46269343245560    1.50842694930639    0.38071353207534
H         1.45833303643133    1.70449474741930   -0.97108045482649
H         0.88742367116085    2.05307305576204    0.67781929659925
H         0.30997274950619    0.64738418757795   -0.10367773285325
H         3.77039316327376    0.18367244823740    2.33319210512102
H         3.98006069454600   -1.07566283399544    1.07434539679483
H         2.31837145855456   -1.12473321123097    3.62575129314008
H         2.65439032042103   -2.46678109193907    2.62785025582238
H        -0.13951966919841   -3.05243624228082    2.42213067429906
H        -1.06807280426898   -1.66804414342044    1.87933438679627
H        -0.66393486832726   -1.67190877921015    3.46908996228547
H         0.12754088443948   -1.50138939409792   -0.02591815374876
H         1.30770430387554   -2.74104549071413    0.45841124196650
H         1.85782577869991   -0.63096718291736   -1.44352841082757
H         3.95137226687597   -0.48376601347917   -2.48635111686747
H         5.07860159777711   -1.73495337955608   -2.15245764253091
H         3.27460092680641   -3.27814750435044    0.34708423003519
H        -1.21815337036507    0.44125087182185    2.26157015888938
H         2.68237254529101    2.91804578128396    3.39445832584583
H         1.44312918602908    2.97922416058318    2.15491707101982
H         4.53267690435208    1.30641467921154    0.29692921484949
H         3.33337141762493    2.15098250464305   -0.49710935878129
