38
 energy: -53.130235621809 gnorm: 0.149957098817 xtb: 6.4.1 (79825abcba525fcdf90b791dcacef51065a7a4e7)
C         1.10402341745470    1.15986137556992   -0.02677632986320
C         2.51375488309738    0.37890142935690    0.31335259742786
C         3.31527467061804   -0.43688513694946    1.59433808075980
C         2.41105163416257   -1.36017190286447    2.48200048205175
C         1.02126781640024   -1.06833141774364    1.97291661036979
C        -0.07775158431241   -1.96198934025004    2.53186299463052
C         1.11062074702038   -1.55631559694152    0.34725456660786
C         2.26173738179224   -0.88074158822759   -0.51317213479361
C         3.40974683250793   -1.82941827283329   -0.81799356284302
N         4.41753171904756   -1.28540128576141   -1.57179795532457
N         3.55631440549041   -3.08779715216448   -0.52485245352067
C         0.68051132018686    0.47384911806049    2.42090440266027
N        -0.46026129215459    1.06699384361187    2.61443621819265
O         1.76158867599496    1.05180081330692    2.92226424561702
C         2.24205699787404    2.33882857182062    2.42568068066107
O         3.40940123614303    2.21618930862989    1.57614408295182
C         3.39622603617707    1.60398034272270    0.25216456521003
H         1.20237406098828    1.37858388378738   -1.09480543949482
H         0.99490917347093    2.00754414304610    0.66768191578045
H         0.25783647371770    0.48533116522975    0.04741072905088
H         3.80020302515528    0.34708767818040    2.18168496371541
H         4.11305873926893   -1.04578852332736    1.13930348362164
H         2.46003825451499   -1.15635089393577    3.55577162735460
H         2.61050165560844   -2.43540885305318    2.38958334130809
H         0.25317229104522   -2.99847302197953    2.49092968024080
H        -1.05469184246922   -1.73655459283466    2.07002700257147
H        -0.12995962846889   -1.71071274025305    3.59692172237439
H         0.12599279065487   -1.53490936100564   -0.13240051845143
H         1.30327985918636   -2.64191221863576    0.39693011948873
H         1.75929891616434   -0.55174566901704   -1.43909606764936
H         4.42137311653956   -0.32371320116411   -1.85263045004979
H         4.93131399398157   -1.94927289178677   -2.14038106726322
H         2.97879183008570   -3.58865522529445    0.14726586652408
H        -1.14561082068890    0.42384662719469    2.21891579098638
H         2.60954534984599    2.89497160384714    3.29441186671625
H         1.46255908937463    3.00120371863835    2.03700738191018
H         4.45210559413374    1.33859947478896    0.16622994895992
H         3.12114480882691    2.40448926398110   -0.44331414347293
