38
 energy: -53.130084161828 gnorm: 0.155578509872 xtb: 6.4.1 (79825abcba525fcdf90b791dcacef51065a7a4e7)
C         1.17589803868423    1.05897610679788   -0.12119912038706
C         2.57045638602387    0.31438515053915    0.34109973869196
C         3.34350478876751   -0.34144955665631    1.72715258402797
C         2.39687972096966   -1.30130554241293    2.52752734428431
C         1.00150592759537   -1.13276921275270    1.97947278104162
C        -0.09429379656503   -1.90940467880802    2.69707259412577
C         1.17650240182461   -1.64268455859794    0.36756330189568
C         2.33611258067245   -0.95670944931472   -0.47299974345192
C         3.53158113007467   -1.84878713875383   -0.76605535969472
N         4.39678313793497   -1.35646044552901   -1.70884156443428
N         3.68504399873974   -3.06557970254699   -0.33385613058767
C         0.71577059651915    0.45301078419610    2.29377518943768
N        -0.47365520274631    0.97719435994799    2.32746857798446
O         1.72828302202969    1.07164402973971    2.88218797359038
C         2.06166282104196    2.40634696622076    2.39095332709513
O         3.13899292035213    2.48750092310147    1.42543829577433
C         3.42723402317610    1.55906953712161    0.33785961767832
H         1.42132220312949    1.25208272057680   -1.17032989307661
H         0.95484495588746    2.03255634455675    0.34358178854583
H         0.28438344114397    0.44802533160070   -0.02917773456695
H         3.57466072460827    0.39796900594988    2.49823776958804
H         4.18425342874040   -0.90721231176605    1.29433222283309
H         2.44314257834383   -1.06347866915303    3.59440376379045
H         2.73889518811500   -2.34289830545938    2.47687486299998
H         0.06200923907532   -2.98629171147039    2.66008279809801
H        -1.09731728016542   -1.71889541117029    2.27733972291164
H        -0.16853507918755   -1.68311365999300    3.76641645974968
H         0.18222059226735   -1.40405088585119   -0.02547245360552
H         1.25726287801347   -2.74322424525507    0.38744683393813
H         1.88310559789001   -0.70812986065760   -1.44819752697429
H         4.58147367277299   -0.38766146527241   -1.88503338379542
H         5.16513040443577   -2.01240105382546   -1.79468380213095
H         2.86741307987062   -3.44046875710586    0.14266465081616
H        -1.08597835354512    0.34196163400120    1.81627539536699
H         2.36400168870026    3.04873058022764    3.22460261419797
H         1.22103994037526    2.95028525276146    1.94946825126996
H         4.49412835055635    1.34773332930667    0.43668722847777
H         3.31981089329511    2.11675508139595   -0.59895517438921
