38
 energy: -53.130814379669 gnorm: 0.148402669819 xtb: 6.4.1 (79825abcba525fcdf90b791dcacef51065a7a4e7)
C         1.06322819315507    1.07297710651211    0.00959294583398
C         2.47346163433392    0.31077234042453    0.38802978724979
C         3.27728048870692   -0.30172284295198    1.77640667375961
C         2.37312920385551   -1.32735318538941    2.54361924726030
C         0.98067383532184   -1.07114611756325    2.02279080571223
C        -0.02641791760680   -2.06560568059992    2.58466758249282
C         1.20330286230802   -1.67101127650280    0.44815191405816
C         2.31364791508326   -0.96319768045677   -0.43950658994556
C         3.51894688766527   -1.84317994597273   -0.72884180480495
N         4.38927602799317   -1.21574483731229   -1.58245664748739
N         3.86825770458198   -2.99361912082564   -0.23346030611754
C         0.60855459482491    0.49400086251661    2.34985494274679
N        -0.58045106445964    1.00280093358660    2.48411349952515
O         1.60920717504809    1.24533248828166    2.78380568385628
C         2.21323984197651    2.44446772669735    2.20838873132789
O         3.32994174253939    2.37201274891677    1.28796898815737
C         3.45587464520349    1.43875575795174    0.17393691859934
H         1.23503967594574    1.41506547278867   -1.01590933358425
H         0.77408409345972    1.97247788700132    0.57531219722293
H         0.21089027906602    0.40881934265404   -0.08496712268237
H         3.69506871991035    0.40775644159756    2.49532069597764
H         4.08668862523798   -0.86540370239657    1.28508031212045
H         2.40372413480466   -1.26059195481377    3.63519335970300
H         2.55157729756168   -2.38763971069078    2.32360903151168
H         0.28727015219513   -3.10403987776522    2.49118620485593
H        -1.05667408811074   -1.88434816903187    2.23218566591202
H        -0.04658714841442   -1.81810595861220    3.65169747325487
H         0.21607335425109   -1.75788342560887   -0.01859273014225
H         1.38005893567909   -2.75855299192146    0.51230416039456
H         1.93463809214190   -0.72687866690660   -1.44872546158623
H         4.10386987403108   -0.38442336075073   -2.06326175430650
H         5.17059798300947   -1.66242544951545   -2.04935805042078
H         3.29786708471831   -3.35011137202852    0.53054361480397
H        -1.27960189742074    0.39661019266132    2.05574494997447
H         2.58770701231005    2.95721810173716    3.10051989653461
H         1.40209086295865    3.07834790066812    1.83736581355179
H         4.51084581587656    1.17433451050174    0.07488827631459
H         3.21743662685793    2.04400852558909   -0.70753415553228
