38
 energy: -53.116719064586 gnorm: 0.161738609800 xtb: 6.4.1 (79825abcba525fcdf90b791dcacef51065a7a4e7)
C         1.07566936714346    1.05944511502954   -0.06157916301668
C         2.53132490028530    0.36113446661970    0.26454677159901
C         3.25337130959869   -0.33806744407458    1.65689413197979
C         2.31072327144118   -1.28344803025568    2.47889931079008
C         0.91650736421673   -1.07894584077072    1.94021835838109
C        -0.10234720557472   -1.90751026027096    2.71113049026812
C         1.19284882883364   -1.68658057158273    0.37711089269723
C         2.38663140315631   -0.99994610670017   -0.41359770492897
C         3.63948451032166   -1.81631908598776   -0.68695368306024
N         4.65960311010820   -1.18834904283548   -1.35390014640970
N         3.77241049346570   -3.08754580398930   -0.44769549108993
C         0.57802521887396    0.47408873840566    2.35087906372766
N        -0.57027652873719    0.96107161366182    2.71815024563795
O         1.64063456019929    1.17041392664314    2.72519267922207
C         2.12845718329913    2.43225128712130    2.17412005568217
O         3.33807350779368    2.28455092085692    1.39024613105348
C         3.48282299073270    1.52945809602053    0.15057779893729
H         0.40892321383510    0.22684350213432   -0.30738942073097
H         1.26402478316465    1.64169474574498   -0.97714011263279
H         0.51848438885660    1.60193647445402    0.69457894617011
H         3.55551401932864    0.45515253367923    2.34555739752855
H         4.08279959363209   -0.94842878927905    1.26473728773442
H         2.38864771726694   -1.16626429822166    3.56385226661042
H         2.57396932431055   -2.32553818159768    2.25707647257009
H         0.15027625966075   -2.96420592676063    2.63999531252507
H        -1.15286736094861   -1.81737443582607    2.38431479081462
H        -0.06734905370384   -1.52061621152089    3.73548580987124
H         0.18353893876792   -1.75791523208642   -0.04267993663721
H         1.41683323205288   -2.76212503021823    0.48265852546159
H         1.98956614505888   -0.75334406703677   -1.41336991077173
H         4.27927572220012   -0.34513371004509   -1.73869178866480
H         5.37582497736530   -1.72665116885918   -1.82849633714388
H         3.02779305163320   -3.56743162336588    0.05369122599469
H        -1.43889605036344    0.53500812933162    2.39604973012496
H         2.52602112295495    3.00837514185360    3.01617756458315
H         1.23838117413997    2.82185839538925    1.67073575734152
H         4.54438263334573    1.34476234919359   -0.02738849710902
H         3.19706500099744    2.25819937750167   -0.61587726636275
