38
 energy: -53.125627701856 gnorm: 0.154274436673 xtb: 6.4.1 (79825abcba525fcdf90b791dcacef51065a7a4e7)
C         1.14564370337743    1.08406837552259   -0.09994158874008
C         2.56681649362001    0.35315709882141    0.29876319276410
C         3.27311614521813   -0.31091097526730    1.71616216732244
C         2.39758324123210   -1.29428175889364    2.56730627854485
C         0.98665010825511   -1.14917340486638    2.05345070491336
C        -0.13020368187253   -1.95548846420357    2.70259072895505
C         1.15499106183738   -1.61570032477093    0.42774977943870
C         2.30445892029425   -0.95449155441008   -0.44593804016949
C         3.51850397683899   -1.82574009473008   -0.72495379642838
N         4.36743189308359   -1.25534838654003   -1.63806966857759
N         3.90609421176663   -2.93127333465128   -0.16059468390244
C         0.67140179948459    0.44473547865486    2.28840134618271
N        -0.55755614837620    0.86246274577832    2.36458312686330
O         1.69105168330647    1.16077888911826    2.73752718527957
C         2.15064730954570    2.47209159326136    2.28684289897770
O         3.31406386271883    2.36054208083946    1.43041776953379
C         3.44035335117493    1.58241981069606    0.20303362334968
H         1.21474283327549    1.54846069459111   -1.08876090418534
H         0.79910020402755    1.83749066249985    0.62463187037737
H         0.35544038539858    0.35168868148124   -0.22534398492835
H         3.86244892406005    0.40789164195163    2.29127511108796
H         3.90367133849369   -1.06403903108651    1.21668491486480
H         2.36267859004434   -1.04322618385040    3.63158064288283
H         2.87993150145642   -2.27479927473428    2.46541770884133
H        -0.24029603303951   -2.98643670083905    2.37016034434058
H        -1.11751243272126   -1.49339770668733    2.52875423161947
H         0.05703299721256   -1.99840975281306    3.78116195009152
H         0.16336240292553   -1.60327398962694   -0.03758624673739
H         1.46718482227655   -2.67219096704148    0.49459131004474
H         1.79703666019936   -0.91034724618613   -1.42501503482216
H         4.05975067887869   -0.63310576836321   -2.36047676153585
H         5.06373881640952   -1.92856684999629   -1.93793306851942
H         3.34841256742683   -3.35520980306764    0.57791951417626
H        -1.16087900134982    0.11556682104871    2.02117850392816
H         2.39466037568967    2.95350653149944    3.23959360591248
H         1.32193350196249    3.00899258596533    1.81525462727327
H         4.49686157531422    1.31528362881166    0.27460193803805
H         3.17814946163914    2.17459540234237   -0.68056811270665
