38
 energy: -53.131917476242 gnorm: 0.149007975244 xtb: 6.4.1 (79825abcba525fcdf90b791dcacef51065a7a4e7)
C         1.10207153137723    1.02776561318327   -0.06866643237615
C         2.50032336520008    0.30948556023489    0.42316126849412
C         3.24569257261459   -0.38932021316876    1.80336440927717
C         2.31152783321802   -1.30850797317794    2.66385982803219
C         0.95098032725412   -1.14344050624525    2.03338423188484
C        -0.19117736177715   -2.04102869389045    2.49022158968209
C         1.20582585655296   -1.66753876175596    0.43674266311499
C         2.32442358028978   -0.94589444376529   -0.42915135255932
C         3.56436919145860   -1.76660799443597   -0.74505231589796
N         4.28224835487788   -1.13210069339853   -1.72579485363654
N         4.02931500134807   -2.87025879957100   -0.23838529578726
C         0.64376232816983    0.44406032583996    2.31726266361274
N        -0.51537901925640    1.02220133453650    2.43031857291975
O         1.66970337080143    1.17866291412664    2.71965805641930
C         2.20421088345798    2.46395928819766    2.27671290629533
O         3.41111408882834    2.29283338505790    1.49342116402506
C         3.45742890996172    1.47107339478065    0.28907046038467
H         1.27740114465648    1.28862515527948   -1.11719415486284
H         0.91459830924205    1.96765996006070    0.47373254455235
H         0.23710271833743    0.39092595335544    0.08230132733011
H         3.71752931643602    0.40574971703227    2.38644169724431
H         4.12638334687060   -0.87516832288719    1.35323708801097
H         2.30500187175955   -1.06133471385630    3.72959428873297
H         2.76048865130500   -2.30818234201182    2.60435301848969
H         0.24917908188560   -3.01776729501738    2.68400617632637
H        -0.99605533888015   -2.14535639283951    1.74201524721512
H        -0.59436171827187   -1.75270119204738    3.46721970028978
H         0.29724025308020   -1.44272814352000   -0.13242500091125
H         1.44350322017681   -2.74231948104544    0.51712350430186
H         1.96139047352018   -0.82650440543021   -1.46451159653296
H         3.65975527358105   -0.78278241725024   -2.42879181964418
H         4.95127243386987   -1.79087069825294   -2.10843484080952
H         3.43806027474579   -3.05646595078998    0.56900490023533
H        -1.28256053028916    0.41753448047837    2.13776219443432
H         2.54185504125025    2.93801290716029    3.20423984116263
H         1.42408261366356    2.99961698022695    1.72726275669349
H         4.50513426893581    1.16942183015736    0.22572049108347
H         3.16876939077690    2.10087123316368   -0.55957859600137
