38
 energy: -53.133531271836 gnorm: 0.153449125814 xtb: 6.4.1 (79825abcba525fcdf90b791dcacef51065a7a4e7)
C         1.25010990116479    1.16223308501545   -0.11546910695081
C         2.60817643384285    0.34755124029457    0.33716505632546
C         3.29289002978560   -0.35263031890622    1.74776016061489
C         2.37357597039494   -1.29811527547978    2.59566471320086
C         0.98891648139948   -1.13939965108894    2.01828810753341
C        -0.00790084870283   -2.04887775953680    2.72404580934810
C         1.07186070066345   -1.52972840845362    0.36612187180810
C         2.32853901239736   -0.95250686613488   -0.41450526175076
C         3.49454591635581   -1.87575893075072   -0.72892969413062
N         4.50398547290789   -1.26072299281935   -1.42360117827727
N         3.58457030317775   -3.16842832487991   -0.62015200989432
C         0.63585530042440    0.44093982442373    2.28848023917135
N        -0.57250711431936    0.89361946251523    2.44841397935995
O         1.60593150448688    1.19804466772995    2.77823783730337
C         2.00126461656416    2.49319404591465    2.23034614530282
O         3.20935451324074    2.37109797759487    1.43974085110086
C         3.57010077218166    1.51271456024461    0.31682714195372
H         1.27638803193674    0.91733674103933   -1.18202140446891
H         1.44271218993715    2.24650247318290   -0.11255485099031
H         0.28457834855564    0.94734045121042    0.32961182163216
H         3.65447876483983    0.43573136799427    2.41295537523514
H         4.16130951031739   -0.80837547027498    1.24534280600234
H         2.38989973011241   -0.90762354675137    3.61751446082870
H         2.74268548132238   -2.33131036982294    2.56879848877907
H         0.33557115372037   -3.07999323971986    2.65837683573060
H        -0.94717360980958   -2.12746100004990    2.14948778465185
H        -0.14241235853174   -1.71772188889965    3.75964135613348
H         0.16434153786747   -1.36633363937325   -0.22525833091857
H         1.20147226483809   -2.62418853425571    0.42496990478668
H         1.98741586466482   -0.72699167738656   -1.43958854813121
H         4.46118111719562   -0.31104794820778   -1.73984587006337
H         5.24552270555164   -1.84845038480547   -1.78785867999129
H         2.76734016083017   -3.60069861685849   -0.19422776812897
H        -1.23964621586418    0.12543338773689    2.38063272757525
H         2.31534840679823    3.04951808788830    3.11966698985644
H         1.09212030231067    2.92280667633099    1.79870467604206
H         4.60458974899620    1.19859244930899    0.47127211987614
H         3.48481742066424    2.11968922252312   -0.59118351521412
