38
 energy: -53.127878837330 gnorm: 0.150020392226 xtb: 6.4.1 (79825abcba525fcdf90b791dcacef51065a7a4e7)
C         1.09215610909539    1.07444400194360   -0.12205634617036
C         2.50574958000598    0.30440325202026    0.22682706410096
C         3.23699301658175   -0.35435733915608    1.63401680815782
C         2.40684397527603   -1.31165186183825    2.55730550347856
C         0.98948264660431   -1.15595262221281    2.06467901510372
C        -0.09449387086919   -1.94095894027750    2.79107360040382
C         1.12246617993914   -1.61312413206207    0.43305433994869
C         2.21013639711705   -0.98428013004063   -0.53819871822618
C         3.49898690988127   -1.76840594494667   -0.72485421803219
N         4.45575761149071   -1.20845722468225   -1.53160892026605
N         3.83720441348130   -2.92765412881429   -0.24248121409048
C         0.59585603010114    0.40782180248348    2.37256926088931
N        -0.61417936359827    0.88298076280827    2.34657621542964
O         1.65155140111889    1.11219589779808    2.75136004441561
C         2.17981771590339    2.36988803537409    2.22883670663034
O         3.34505309263377    2.26665934986938    1.37384213360640
C         3.47348141012463    1.46317665118136    0.16313289118416
H         1.37187791642528    1.72405656544832   -0.95749502452428
H         0.79942319078268    1.83125412189844    0.62245028040866
H         0.25101176639962    0.40898050465981   -0.28380178488805
H         3.59888335734962    0.45293889341995    2.27593066772171
H         4.12269081096057   -0.88804825886587    1.25323780953654
H         2.54053766308373   -1.04389021384411    3.60961574453033
H         2.64926626242743   -2.38201680435872    2.55484812253706
H         0.30523281309470   -2.94281851180737    2.93933194130519
H        -1.05958851203127   -1.97860794868292    2.25656406891252
H        -0.26443896033612   -1.50338879436648    3.78095577422640
H         0.15401597724294   -1.35305012673060   -0.00795036146804
H         1.25033671232754   -2.70933637277065    0.44160099879639
H         1.86932571132951   -0.71853796452979   -1.55370204258534
H         4.23980873901196   -0.34867146538496   -1.99836382824718
H         5.42966904978463   -1.48944897607969   -1.50870421992495
H         3.09296161021445   -3.31072032627601    0.33673991146230
H        -1.23583953300200    0.09788786885379    2.15436149299617
H         2.75829459215865    2.83907153036427    3.03149976064834
H         1.45711557780249    3.07033393193843    1.79929985636609
H         4.53780607396120    1.23385323550813    0.24867337874277
H         3.29148363938958    2.10171652869555   -0.70825593241615
