38
 energy: -53.122933243993 gnorm: 0.160260806994 xtb: 6.4.1 (79825abcba525fcdf90b791dcacef51065a7a4e7)
C         1.19096271624779    1.17629243670325   -0.06278395047712
C         2.55354264071182    0.36672690525530    0.38544425311977
C         3.26205310296419   -0.47265723811086    1.70541117378610
C         2.35648298804271   -1.42954903277337    2.55530713107645
C         0.97499477331218   -1.12201615798895    2.03305226826476
C        -0.05261462456362   -2.03046762417075    2.69458382916589
C         1.05730103900118   -1.58270429344946    0.39907501609803
C         2.20228533590793   -0.87007313855118   -0.43935901973589
C         3.34344564566021   -1.75675378329161   -0.91093068548779
N         4.48031879340138   -1.07721810151429   -1.26527038354426
N         3.34793037715328   -3.05081523308438   -1.03866486608163
C         0.72469786074223    0.43179995549152    2.50010230636130
N        -0.45974601982627    0.96480988270389    2.43984899425968
O         1.75777437819211    1.14823124136138    2.91675224897016
C         2.26940623569509    2.37793868182968    2.31680398074316
O         3.50417452339185    2.17536050760343    1.58621877654751
C         3.49173163800885    1.54566597616613    0.27045848862200
H         1.38974354329139    1.20902729583551   -1.13870828660799
H         1.11514569420750    2.17937291543758    0.38535171597001
H         0.25594213669030    0.62783214863102   -0.02464090498006
H         3.63057416503408    0.33175869888306    2.34716850335720
H         4.00579036004792   -1.00381730002007    1.08977888096045
H         2.47329979958583   -1.17910837644303    3.61387241980739
H         2.53362608981933   -2.50892570788659    2.46574124759066
H         0.46516683183153   -2.98605773968196    2.62951106646468
H        -1.06081712444871   -2.08566793465415    2.24848271057076
H        -0.12361022727325   -1.73966512153156    3.74843828875665
H         0.15945077740514   -1.39989753054237   -0.20131321593041
H         1.38697499783713   -2.63166858340937    0.49443861188403
H         1.76333887159858   -0.59403501446473   -1.41360068059424
H         4.54712829914982   -0.07947218346557   -1.20390923674957
H         5.11725093391172   -1.65713652682020   -1.80005684445583
H         2.48059058262783   -3.49202727123821   -0.74002160775327
H        -1.27144587225818    0.40984486928611    2.16978253563363
H         2.53888376094381    2.94154996276203    3.21611528245719
H         1.47256441107138    2.81059589347009    1.70420656243566
H         4.53369925209653    1.22203447030225    0.22292383151957
H         3.30087663484687    2.19325648460191   -0.59231364267155
