38
 energy: -53.128359065834 gnorm: 0.147053721362 xtb: 6.4.1 (79825abcba525fcdf90b791dcacef51065a7a4e7)
C         1.16101679464313    1.13768549692524    0.03161765398599
C         2.51941118251506    0.26410806296853    0.35496895309196
C         3.27764741185771   -0.52106495679632    1.68065618071358
C         2.32830583345705   -1.44068103406454    2.52391124906316
C         0.94687404450182   -1.11272751887063    2.01407894774492
C        -0.16313685288933   -1.95357944990299    2.63030370976264
C         1.04975766364204   -1.62268224138989    0.39597800976495
C         2.19190690531357   -0.96543441523870   -0.49020718562932
C         3.43625138667861   -1.74495334210641   -0.88363605518001
N         4.12202823945241   -1.16483433018464   -1.91948254623634
N         3.92085656971959   -2.87667131960293   -0.46494358137812
C         0.72384276207122    0.45888401183791    2.43291422923836
N        -0.38701351482694    1.12481686306668    2.54767092656525
O         1.80295183550582    1.08185436770535    2.88185698017308
C         2.28638978090953    2.36731498211627    2.38409777018065
O         3.42633259259052    2.22698555313474    1.50076124758979
C         3.48756839950368    1.42220369118361    0.28565981828239
H         1.28163490076604    1.08091663754969   -1.05485698228236
H         1.10244304251568    2.19692114166081    0.32713956622619
H         0.23119656920398    0.66466268051478    0.32862072704139
H         3.56807511101298    0.28142827258250    2.36359220154275
H         4.08049212408814   -1.01548544783785    1.11033348318184
H         2.44264332337858   -1.15849778473253    3.57473316870477
H         2.63482063433419   -2.49386012804537    2.48760431122216
H         0.32984503848336   -2.87396060550360    2.93909481003079
H        -0.96630457078130   -2.16153853893301    1.90215523717480
H        -0.74688492587704   -1.60742579683283    3.49032202931950
H         0.05187706998174   -1.44047713006401   -0.01761000348281
H         1.33369208801948   -2.68522683239202    0.48809443221517
H         1.72831405810514   -0.72287627279386   -1.46194020355527
H         3.95516698628957   -0.19452979098120   -2.10493346307087
H         5.08240439237885   -1.48610659875775   -1.96894226625378
H         3.34630489850409   -3.34254963598423    0.23432885863612
H        -1.19843727727927    0.63658252619096    2.16952092755253
H         2.65126456172754    2.72758451242878    3.35162497461269
H         1.45817003170861    3.02145662389000    2.09500348446880
H         4.55279578689464    1.23359688321332    0.13595518277791
H         3.30474992011975    2.13921390025634   -0.52220688550614
