38
 energy: -53.125013342361 gnorm: 0.151779452316 xtb: 6.4.1 (79825abcba525fcdf90b791dcacef51065a7a4e7)
C         1.04369721308242    1.17479548017610    0.02926729778993
C         2.45442849713181    0.37251542632553    0.31053737613861
C         3.28247806851045   -0.23790703683730    1.68552239257015
C         2.43448373365662   -1.26602687961613    2.51129322467277
C         1.03326145263911   -1.10268327588363    1.97675486232999
C         0.01505414191982   -2.01953146675559    2.64123390507091
C         1.19460746425677   -1.62775631198732    0.36829121873813
C         2.33594876364994   -0.92641595460910   -0.48450745684266
C         3.48409554498560   -1.90652508779450   -0.66332102726456
N         4.69745457324337   -1.28865862733520   -0.82396604055187
N         3.43082454292934   -3.20019799359165   -0.78375265005439
C         0.61731938266494    0.43923296843716    2.35703797982036
N        -0.55759317759297    0.99620379701818    2.35589803098801
O         1.61341886489513    1.17689829878302    2.82367887720309
C         2.17084808161926    2.38711951589713    2.22491120035778
O         3.30288755762615    2.36070124112282    1.32090120886843
C         3.36400930460803    1.56106871441469    0.10239921370092
H         1.28184693849369    1.40785129694196   -1.01340631326070
H         0.87718066732841    2.01167177593382    0.72543864424382
H         0.18068004436484    0.51848437405808    0.06063861737829
H         3.73456902321394    0.55684789314901    2.28445778166518
H         4.17656833879419   -0.72407796087759    1.26300653142483
H         2.45962259568946   -1.01639122111336    3.57617689483804
H         2.85361871189217   -2.27730790935894    2.43324022591264
H         0.19483486793968   -3.02879418481938    2.27442030599544
H        -1.03091049563491   -1.72035239030466    2.45421673814081
H         0.26503595316138   -1.98729084759631    3.70738836405034
H         0.26855567723723   -1.63772425308931   -0.21681403274993
H         1.34641711295948   -2.69929936186140    0.58475030379898
H         1.90190443149509   -0.71580900147049   -1.47711416272049
H         4.68849835206601   -0.40764319768913   -1.30089079409244
H         5.37961108185136   -1.93088063469716   -1.21151975505626
H         2.47676862796305   -3.55324211677859   -0.81940843168271
H        -1.28238650437623    0.29710540594144    2.19553972533193
H         2.64661242075324    2.86054204304680    3.09010252766385
H         1.36459050270527    3.02042920373003    1.84242943246552
H         4.37271149059297    1.14960043072589    0.02554117213933
H         3.06440695994051    2.10000590508109   -0.80311720900156
