38
 energy: -53.128438282198 gnorm: 0.152347980839 xtb: 6.4.1 (79825abcba525fcdf90b791dcacef51065a7a4e7)
C         1.07516798432592    1.15557789449147   -0.00863371538614
C         2.46342588511006    0.34775000255731    0.35617173871430
C         3.21901897357813   -0.48050664421615    1.65691595414128
C         2.35220789267341   -1.33308924777309    2.64674611089170
C         0.98507592080779   -1.13004440015597    2.04213114708743
C        -0.12337676427122   -2.00696422904045    2.60890569948752
C         1.21869159192336   -1.64693930532240    0.43990366040521
C         2.26108108721006   -0.90209199348430   -0.49840890684707
C         3.44627575410905   -1.75575092498407   -0.91960875344055
N         4.56059379502360   -1.07787656156020   -1.34220499250228
N         3.47804384163658   -3.05571043286628   -0.91438863505469
C         0.70559863187934    0.44856397757968    2.39570831617182
N        -0.50771433272515    0.89253449433416    2.54199290458385
O         1.60866459061146    1.30012959372854    2.85768874191777
C         2.34443266169295    2.43722181298339    2.31037523095505
O         3.55938614323419    2.11020327220551    1.59177083057025
C         3.47471332391160    1.46823991058632    0.28463322391573
H         1.16197772702433    1.52505315081671   -1.03535211067991
H         0.99567105678471    2.13062302161176    0.49704551345918
H         0.15277385666185    0.60655848858023    0.14723106224468
H         3.76876887356995    0.27637835805154    2.22228785387672
H         3.88102725219085   -1.14346127989376    1.07681645208343
H         2.43381209507983   -0.99397526218145    3.68369819143654
H         2.57909644730438   -2.40616524263218    2.68528471488921
H         0.05853902882265   -3.00638425745070    2.21705009540270
H        -1.09426687068209   -1.86795164390682    2.10237488512368
H        -0.27635771192770   -2.01153487231631    3.69370596753977
H         0.24727834399727   -1.73667170867104   -0.05841735707049
H         1.62968001493020   -2.62750060809121    0.73603416598273
H         1.78380388321277   -0.63816343067105   -1.45787023832061
H         4.34370989925986   -0.16289674128017   -1.68789116414086
H         5.24547014451355   -1.59327739020374   -1.88376834420424
H         2.63147879229908   -3.52655185501285   -0.60170644757138
H        -1.31304840537331    0.30771278590665    2.32018373022734
H         2.72113032023180    2.88694977599933    3.23497258194010
H         1.72253675047398    3.16728553634908    1.78342440071044
H         4.50101894142370    1.16021709226214    0.07365424706002
H         3.20270979184207    2.24392408502561   -0.43959256916684
