38
 energy: -53.125631353577 gnorm: 0.156991417971 xtb: 6.4.1 (79825abcba525fcdf90b791dcacef51065a7a4e7)
C         1.13896893726183    1.16972899575219   -0.10155742975046
C         2.49592802437136    0.33896065711706    0.32437084697563
C         3.24821972378313   -0.38402075644632    1.68826987091375
C         2.42444077771459   -1.34247293272694    2.61605214474006
C         1.04578498131758   -1.12554297519494    2.04326432569585
C        -0.04505962171373   -1.99736623203102    2.65061218313504
C         1.10967375042240   -1.60734643264785    0.41456139990818
C         2.30865381925308   -0.98258633964898   -0.41846048065428
C         3.54888438235445   -1.81552323723073   -0.69930477132483
N         4.50632472312325   -1.16082506779393   -1.43038904853652
N         3.77507233622471   -3.07839834016531   -0.48736929222930
C         0.66725639710482    0.43922409625102    2.36474364093594
N        -0.55958096722499    0.86930491538271    2.38793711859690
O         1.62426172726316    1.18945439386397    2.88954205122452
C         2.14172969800785    2.44563418790452    2.35276956804878
O         3.21507420910335    2.29327992381820    1.39143449915185
C         3.45459902123940    1.49937807636170    0.19133330162383
H         1.33466141309583    1.22808605020521   -1.17696315385515
H         1.10358160373825    2.18035233154558    0.33448436534584
H         0.12247569300326    0.79124801440308   -0.10610520958759
H         3.72578232085449    0.38941952909783    2.29528661414599
H         4.07421653713258   -0.87362926221255    1.14762949845388
H         2.48585755126338   -1.01706612838426    3.65877240955959
H         2.57846417772488   -2.42767138491219    2.56058285280434
H         0.36338629546742   -3.00518549472352    2.70498894256673
H        -1.03993794232045   -2.04004473001746    2.17424967766474
H        -0.34053964730511   -1.59772748159953    3.62692981575224
H         0.15691100916991   -1.17669967074687    0.08774956039477
H         1.21955704718932   -2.70483542479115    0.37520684754946
H         2.00734336390446   -0.78225283646682   -1.46109960835837
H         4.08964372726394   -0.55937411285690   -2.11475687529786
H         5.25987617057006   -1.71692104408207   -1.81885007681488
H         3.03005274299375   -3.49605695245617    0.06638269879602
H        -1.25517019633921    0.22049666185664    2.02053789232076
H         2.71926636234586    2.91406387536086    3.15654917726259
H         1.31736829025554    3.01784349622125    1.91638724890187
H         4.48907199127518    1.15002666287557    0.21397540088414
H         3.23069310603881    2.14935014089919   -0.66164812203645
