38
 energy: -53.127676494927 gnorm: 0.157204301032 xtb: 6.4.1 (79825abcba525fcdf90b791dcacef51065a7a4e7)
C         1.10955694510239    1.28870684770169   -0.03959771862330
C         2.43598713702151    0.38676689082711    0.33458960854151
C         3.21679976062593   -0.42177287008487    1.63284250553052
C         2.37107613610122   -1.37609915300575    2.54500212727772
C         0.96701716506943   -1.21426751603360    2.01749360989287
C        -0.06520616101390   -1.98647583339969    2.82810971941056
C         1.00308923788519   -1.59170312023506    0.36065000199901
C         2.18688567965438   -0.90374247076842   -0.44380009720740
C         3.44713825981331   -1.69409749167817   -0.75674038892074
N         4.23185283166228   -1.08785194593742   -1.70357474604236
N         3.75319710186440   -2.92646245436905   -0.47649808088057
C         0.68339350863561    0.37176342217572    2.33244177285792
N        -0.48730646892286    0.93626607177684    2.29455108232710
O         1.69374077503234    1.04101098412369    2.86669282665628
C         2.37501612621348    2.23757555809387    2.37885822851012
O         3.53879484170261    2.08764197889751    1.52880858011505
C         3.52678137749202    1.42704787867153    0.22828319422528
H         1.47547708637075    1.48259427767456   -1.05286406111208
H         1.01601894665411    2.26059965678038    0.46973443868852
H         0.14477433925225    0.80500657348647    0.06882564335731
H         3.73584892480219    0.18417835958029    2.37994109945445
H         4.03124913907131   -0.91113826361491    1.07474488045166
H         2.46212492952946   -1.15554586855050    3.61270692038206
H         2.71621200788429   -2.41041641937320    2.42040374327203
H         0.22189488681136   -3.02127691194578    3.00767663713173
H        -0.98244690411930   -2.05684320029517    2.21799216799225
H        -0.27862040883572   -1.45993694331443    3.76482037333872
H         0.02665708032134   -1.22729078660723    0.02330249738669
H         1.04231809957948   -2.69267156678439    0.29405584556804
H         1.75481893925033   -0.69280712056567   -1.43719954670789
H         4.08120012702278   -0.12286905233203   -1.92681765545099
H         5.07026360911092   -1.50284101294019   -2.09451710353539
H         3.08712255137048   -3.19240267279533    0.24582779914447
H        -1.19276309326583    0.26087712655340    2.00136266731724
H         2.83096349467370    2.61803113883882    3.29885941381455
H         1.71864208071723    2.94946827051449    1.86914592555710
H         4.57851764948514    1.15011166336921    0.12903328357113
H         3.18956741879758    2.11623489087671   -0.55369050537357
