38
 energy: -53.123066922148 gnorm: 0.150932704490 xtb: 6.4.1 (79825abcba525fcdf90b791dcacef51065a7a4e7)
C         1.17474417003541    1.11755938948472   -0.07047429222903
C         2.52817711826927    0.28378392862926    0.36076419634602
C         3.30547998283844   -0.51904972742938    1.66465216441955
C         2.43367287964645   -1.46653948539463    2.55921227643256
C         1.04250898522791   -1.17641489161637    2.05292480088366
C        -0.18788826759728   -1.86686131564129    2.62589554806540
C         1.05606686964666   -1.61816300409147    0.41171660844688
C         2.18952776331866   -0.94834639971241   -0.47621128559838
C         3.46069492457565   -1.71266686173590   -0.80904386562410
N         4.18858044009011   -1.09012010485961   -1.79007603774665
N         3.86167126817492   -2.84322708782365   -0.30706507443031
C         0.77032729538471    0.40708345139219    2.38993954508172
N        -0.34385538265317    1.07268738508553    2.46871594172980
O         1.82167793544517    0.99762471414082    2.93769946704533
C         2.21043541665614    2.27151531853978    2.33773626629565
O         3.36364290416397    2.22471768345499    1.46174091228554
C         3.47327792103203    1.45523487159088    0.22732949978438
H         1.27850663557801    1.50569337494609   -1.08870015796469
H         0.87395241501116    2.01935043263777    0.48544068943840
H         0.26316497646857    0.53161121927822   -0.02340864200110
H         3.78019768400536    0.23282204133626    2.30032281758887
H         4.11330430906092   -1.11541937840670    1.21073331166386
H         2.37840398028692   -1.37486062319067    3.64800403122821
H         2.76105040344354   -2.49150966224381    2.34307386099213
H        -0.07910446517269   -2.94974163275405    2.59394465117278
H        -1.13882578079700   -1.52600350156264    2.18085694251527
H        -0.33105879943108   -1.67656424721887    3.69524343975361
H         0.14387781901359   -1.30608859283377   -0.10841812146563
H         1.19577702433852   -2.70246147243496    0.26044497906642
H         1.72914420080754   -0.72904582452108   -1.45497176656113
H         3.78614398639173   -0.21047937516653   -2.05084932553646
H         5.11260053741538   -1.40445965778063   -2.06459741552030
H         3.26883508791275   -3.18589773072765    0.44609909644763
H        -1.11264544312943    0.49691443765845    2.12633300734994
H         2.58811849068457    2.91870384054868    3.13619675129727
H         1.32823187504953    2.78757977439625    1.94681537126497
H         4.51805524762738    1.14014742320964    0.27038342355478
H         3.13132304459531    2.17529995258302   -0.52416766998376
