38
 energy: -53.128350120607 gnorm: 0.156085182269 xtb: 6.4.1 (79825abcba525fcdf90b791dcacef51065a7a4e7)
C         1.05023715320035    1.21821273345323    0.05055590333479
C         2.46701267880697    0.41593974530982    0.29962231981881
C         3.29221996943191   -0.39333827814137    1.56964889631995
C         2.37610794380524   -1.44990550789353    2.27846955849436
C         0.95756522308967   -1.12046651878120    1.88471480784152
C        -0.06142395412459   -2.08481623085099    2.47681263293949
C         1.00443471191712   -1.42380745608440    0.21298603688580
C         2.23669400046724   -0.81160930988810   -0.57982814672814
C         3.40973737560643   -1.77130358869548   -0.69723939978781
N         4.30395315602492   -1.35362382102338   -1.64893666243553
N         3.62512088694173   -2.93559491009912   -0.15968304255840
C         0.71604615052205    0.40339752962452    2.44563877051691
N        -0.45219163491265    0.93380696776205    2.65664504623908
O         1.78905970693736    1.04846318134624    2.87766915968493
C         2.32456142343462    2.33276190152460    2.43303428947743
O         3.45732230010259    2.26163822269161    1.53234589294842
C         3.46907414657861    1.54629685170413    0.26110878878681
H         1.30887491315726    1.61209758271982   -0.93745209293157
H         1.02036942314899    2.14231628145461    0.64879063599494
H         0.21530930341887    0.55062527404571    0.23426637065991
H         3.67925309398815    0.33136062170754    2.29059418232132
H         4.16624868363471   -0.89859653764729    1.12798484547744
H         2.42525359555419   -1.28986941366200    3.35962649476805
H         2.51431713135911   -2.52351239648075    2.09757676854085
H         0.30278011426932   -3.06313247701129    2.16739820933790
H        -1.06667869300771   -1.92264466438763    2.05056287064488
H        -0.08359803720548   -1.97733516644704    3.56684557875574
H        -0.01523945502229   -1.24363909543695   -0.14453793949097
H         1.05413895540748   -2.52534004561375    0.16543964765368
H         1.84464396724724   -0.53205942132762   -1.57288730101577
H         4.48099566137398   -0.37524873991579   -1.77207793841167
H         5.15082702514828   -1.90967351735197   -1.68891011840903
H         2.86004170305091   -3.21574209745837    0.45048543796148
H        -1.24246259710647    0.35119463587817    2.38130273879477
H         2.71395339441965    2.76635009664056    3.36007894642148
H         1.52771853610528    3.01846548120764    2.12926339145093
H         4.46251554874842    1.09429732694314    0.22284628773162
H         3.47408982189777    2.22273301164097   -0.60062423937276
