38
 energy: -53.124008109994 gnorm: 0.159567679477 xtb: 6.4.1 (79825abcba525fcdf90b791dcacef51065a7a4e7)
C         1.18048083666083    1.18868101599864   -0.18402311305003
C         2.49520434843566    0.36352917122963    0.36693554224020
C         3.37748128235251   -0.34671532915994    1.65767395532206
C         2.53404515564325   -1.34727571286926    2.52110704597715
C         1.11575524121827   -1.19052577413766    2.03149548176860
C         0.08526668880036   -1.95026139608143    2.85598581181492
C         1.06823173078278   -1.66962324911365    0.40143513887584
C         2.25495126171479   -0.95167285963019   -0.37190039560285
C         3.40857894100828   -1.88706733306129   -0.69595224438647
N         4.49248875388295   -1.18180007555512   -1.15152170232990
N         3.53928432873235   -3.18080327657977   -0.68622755071923
C         0.68813747011908    0.37045058710431    2.30649495338108
N        -0.47356126410580    0.87550404031092    2.01321276271812
O         1.60868795336026    1.12232739989127    2.89077755633385
C         2.03625556909458    2.39068476475073    2.30567840063681
O         3.21800622355355    2.32087392821133    1.47019217901555
C         3.36274309798560    1.59141019715835    0.21527024086325
H         1.44277390183516    1.39413857891749   -1.22670623802874
H         1.02010072447325    2.10077676915038    0.41188275220160
H         0.21525059986654    0.70175780806483   -0.09591271255589
H         3.79581822703278    0.44475189234497    2.28482551340595
H         4.17253565358329   -0.77735940769312    1.02782201883082
H         2.63684160551876   -1.12614475265159    3.58762528355354
H         2.86775081419213   -2.38285888912965    2.37735812127208
H         0.12829625885521   -3.03774791198496    2.82426680595402
H        -0.94825007007212   -1.61662438277344    2.65836236234568
H         0.20155554439276   -1.55804357324878    3.87228192198092
H         0.06876262406716   -1.53025089097651   -0.02477641648583
H         1.25017554313701   -2.75809379125816    0.38615300061161
H         1.78354619403924   -0.73253913129896   -1.34543803211800
H         4.42639360442462   -0.21068696091824   -1.38879025758683
H         5.38804876767786   -1.63414753624760   -1.29759880935640
H         2.69718354418687   -3.57800741091295   -0.27485263197833
H        -1.13755989283203    0.28725232238037    1.51037635299042
H         2.45133831956242    3.00821806646374    3.10904355209385
H         1.22000419772841    2.90141145153791    1.78575849567140
H         4.42468099279847    1.33789386160541    0.18860980085858
H         2.98643089880162    2.20774571793891   -0.60855893460165
