38
 energy: -53.121907528684 gnorm: 0.164698518952 xtb: 6.4.1 (79825abcba525fcdf90b791dcacef51065a7a4e7)
C         1.12995661203202    1.23933980994272    0.01897341442963
C         2.47611498363602    0.37787211106314    0.41729482821558
C         3.34672522624371   -0.36933383628778    1.69502193563978
C         2.48233404281135   -1.37366602531674    2.53297600202952
C         1.05351050845549   -1.19630879945425    2.08259390253454
C        -0.01218631373464   -2.06302228686424    2.73985122626636
C         0.99918009627280   -1.53632263298506    0.41816354721981
C         2.17511496368282   -0.86791564033315   -0.41382992452584
C         3.30950652988110   -1.78499888419764   -0.84154870233400
N         4.18818451944519   -1.19247209332600   -1.71140093967679
N         3.66558843147799   -2.96234274679070   -0.41965028389373
C         0.74443590556901    0.39927779819014    2.31433768081047
N        -0.46000012819198    0.88911841880730    2.30910308375065
O         1.72796091919061    1.11747075052114    2.83490999196724
C         2.28350753151494    2.36966960809027    2.32771035097052
O         3.46816928674328    2.14675089631548    1.52376435392197
C         3.46625107348675    1.50137302233045    0.21556754208404
H         1.44446238405769    1.45908757802844   -1.00620735166821
H         0.94675522010345    2.21485873687854    0.49598946064225
H         0.20315429202794    0.69031919610233   -0.10807336540660
H         3.96645343553367    0.34764345562408    2.23965552160773
H         3.93277309776116   -0.97636693676907    0.98626390149421
H         2.49490041769459   -1.12207940868798    3.59762309254700
H         2.72452617291586   -2.44337765601764    2.49404357781521
H         0.50583195991641   -2.88328015274534    3.23413724679985
H        -0.63293102611448   -2.56778191187906    1.97931240513930
H        -0.69377072651710   -1.44584575568746    3.33546143005797
H        -0.01060306751367   -1.26608372079169    0.09055350287451
H         1.05431085833200   -2.62747568975814    0.26179597030542
H         1.75370995722097   -0.51354608297228   -1.37031196918236
H         4.31441115054993   -0.20536173074909   -1.59561842191619
H         4.97927007937391   -1.72573234643845   -2.05462335625501
H         2.99779004712634   -3.46494126238512    0.16136109653891
H        -1.14419899345694    0.22255689110831    1.95224685716432
H         2.73621860398748    2.90321898150833    3.16997775906194
H         1.40071688807927    2.86931787074336    1.91727515112509
H         4.52804350307248    1.24709721425788    0.19038711372585
H         3.14642787898123    2.26641443543348   -0.50039308457248
