38
 energy: -53.131792293304 gnorm: 0.149684014615 xtb: 6.4.1 (79825abcba525fcdf90b791dcacef51065a7a4e7)
C         1.17625704086957    1.06804065525408   -0.07431194274047
C         2.57558261179262    0.32725600801805    0.37962082372911
C         3.31767434308705   -0.34894685129369    1.77278808674742
C         2.40248639860178   -1.35436680605792    2.55354670141125
C         1.01427075339022   -1.13678889042869    2.00458999098906
C         0.01769901280982   -1.99453142587340    2.77271215662215
C         1.13716730916533   -1.66840329911982    0.39487818057463
C         2.33295515109828   -0.97276793971389   -0.38485684048611
C         3.50616097654481   -1.86136685683769   -0.76539497809939
N         4.71598286565170   -1.25929951001701   -0.99702357539074
N         3.39468885225547   -3.13917240522362   -0.97921289707317
C         0.64854325788147    0.43169508887421    2.32275696403972
N        -0.47153951792024    1.08906680028433    2.38532190182359
O         1.65953535407655    1.11114578987729    2.84271832622668
C         1.99667754024056    2.37886434449242    2.19998174980467
O         3.19048219197575    2.37957242054281    1.37883904838263
C         3.43216605202298    1.55868018322364    0.19747542730281
H         1.22010652481114    1.12502373297159   -1.16657047925469
H         1.20265999120740    2.15492072589998    0.10101300160018
H         0.21603842429768    0.64576660735631    0.20171684759418
H         3.67508981104407    0.49110643418928    2.37387867622198
H         4.13799600334632   -0.89481243666600    1.27945009617335
H         2.41702546318785   -1.04763426523562    3.60360904551655
H         2.79770895437001   -2.37551904453222    2.47936473726658
H         0.41001374606707   -3.00905238235232    2.82088831055467
H        -0.98440978052544   -1.93855145513598    2.31318002594824
H        -0.08528522087692   -1.59838559638535    3.78892002108764
H         0.16543995236861   -1.45992350701851   -0.06588374768483
H         1.40262498259329   -2.72824680912214    0.55098446188258
H         1.98755083202116   -0.72535091356559   -1.40343355439065
H         4.67786572923379   -0.26495709923519   -1.11345326740171
H         5.18474571041232   -1.69479431253273   -1.78352860409437
H         2.55559424227121   -3.58842038799297   -0.61833804501560
H        -1.29197552932115    0.68632302085670    1.93314835795029
H         2.33276799168531    3.02235668124167    3.01973625989722
H         1.08732262020096    2.84480468813524    1.80832120701152
H         4.48690137625938    1.27648407211147    0.22180956719608
H         3.26785564214546    2.11112608497516   -0.73417926009207
