38
 energy: -53.124706713923 gnorm: 0.152415614723 xtb: 6.4.1 (79825abcba525fcdf90b791dcacef51065a7a4e7)
C         1.08139887298419    1.15172002368687   -0.01768048845175
C         2.50188625759938    0.39506690319078    0.33249169705057
C         3.25538165540934   -0.36810528727580    1.67363985642936
C         2.32553894193284   -1.29771082980667    2.52760024808135
C         0.92761770462560   -1.11937383851104    1.98922449750232
C        -0.12363475955959   -2.04685494970939    2.58381359622993
C         1.19317391123489   -1.64360655192081    0.39437355765473
C         2.25291765326962   -0.86435326575077   -0.49529568487573
C         3.40463529120515   -1.77134639029393   -0.89746381439482
N         4.54978253643618   -1.21817885772415   -1.40976194895797
N         3.50014345432729   -3.04202998771400   -0.63828712435546
C         0.63394481295449    0.44544468669589    2.38950943587887
N        -0.50262317300538    0.91876673543277    2.80762043229934
O         1.76116294517420    1.08414226846434    2.66439622577856
C         2.28717497017194    2.39687176363930    2.29842070128732
O         3.39278001424137    2.41023505608151    1.36198902803722
C         3.51743741807172    1.50852718135210    0.22213000422969
H         1.27460152054972    1.47597438367749   -1.04516791417899
H         0.85004558160660    2.03879355264642    0.59250018039604
H         0.28650369927593    0.41374369387222   -0.02540487041149
H         3.78593242273255    0.35085057303041    2.30321399259482
H         3.97297756367600   -1.09945786496880    1.26810470409929
H         2.34147290935608   -1.11341284139076    3.60588941365811
H         2.58670083925711   -2.33941581320305    2.30154509481043
H         0.22142983790498   -3.07650904543333    2.66272763824712
H        -1.09303644602672   -1.94929428911884    2.06490333711760
H        -0.20914024091866   -1.76787407056211    3.63978432442822
H         0.23098793281646   -1.56220179594426   -0.12291828956712
H         1.51314814948298   -2.69355083435942    0.50986685849972
H         1.83129435739937   -0.51533367887838   -1.45364686145286
H         4.48800363254109   -0.35065092697070   -1.90705891582904
H         5.37848928575363   -1.74833105085265   -1.65505413920295
H         2.66745811149469   -3.45072519191707   -0.21907652542259
H        -1.34091964519581    0.34276187495689    2.73512122047148
H         2.70238614553068    2.79407175024420    3.23055184994366
H         1.49879838325765    3.14394391737123    2.16511541862864
H         4.51605527001698    1.08106938305856    0.33498220935218
H         3.36765723898885    2.07765034712147   -0.70190439623128
