38
 energy: -53.119493671758 gnorm: 0.148346792949 xtb: 6.4.1 (79825abcba525fcdf90b791dcacef51065a7a4e7)
C         1.12249167674269    1.12135491818362    0.09786523509453
C         2.49120996983395    0.28354721697768    0.46883341244291
C         3.29693710489821   -0.45764006183302    1.79182648583622
C         2.34064076653453   -1.39576745256561    2.60634265345452
C         0.97122253550595   -1.11376696400262    2.03976899599521
C        -0.14600634388572   -1.98334442096227    2.60059322471737
C         1.13794598418475   -1.61311817946397    0.42368076820017
C         2.29484753886753   -0.93695314660326   -0.42848320870702
C         3.47990693669499   -1.76629571431412   -0.89608810048809
N         4.05120161487006   -1.08054478145165   -1.93684453455732
N         3.94584862172267   -2.91734680126579   -0.51019837844532
C         0.64434697983409    0.45060681717978    2.41528969714112
N        -0.51116525275524    1.04082445169591    2.33119479175341
O         1.69107461550370    1.16651858421595    2.79732324503346
C         2.35573748646091    2.38848581613380    2.35133579951638
O         3.57776988393736    2.11432279144417    1.62269540078368
C         3.45254668803560    1.44159822753750    0.33441904325811
H         1.22846217096285    1.35247063457179   -0.96681985367826
H         0.90055841047650    2.06413578172070    0.62193975638053
H         0.23300916411902    0.50601223955983    0.17972675313982
H         3.83940177075305    0.23478280382631    2.44069310810302
H         4.04051355977381   -0.99056696648029    1.17752834318344
H         2.25631330327188   -1.20624962075775    3.68053957455652
H         2.67608659579988   -2.42266624379801    2.41292420707426
H         0.14541993596317   -2.99523039923590    2.87743622317696
H        -1.04345595088987   -1.83349624925569    1.97556898767140
H        -0.31451098695543   -1.50372376973489    3.57104977443400
H         0.20930446479472   -1.48067855895913   -0.14209666261417
H         1.20179814933802   -2.71424636598042    0.46298479750339
H         1.78033362604802   -0.55405863245208   -1.32663969291250
H         3.90998479685928   -0.12601579247496   -2.20639569991998
H         4.81605110505364   -1.58908462673144   -2.36623592942041
H         3.46230110386059   -3.42922754506240    0.22484860540061
H        -1.22941354512102    0.39002529600808    2.01440059431267
H         2.60324463725545    2.72032095204015    3.36507259139322
H         1.72890047868388    3.00525087017185    1.70010544124472
H         4.43974381504867    1.04720466833365    0.08424119395664
H         3.18871763654173    2.18900278406554   -0.42185835978049
