38
 energy: -53.129020505919 gnorm: 0.153765444100 xtb: 6.4.1 (79825abcba525fcdf90b791dcacef51065a7a4e7)
C         1.17813343886967    1.08932906963064   -0.08229663310636
C         2.59858917818192    0.37125958191658    0.34150828653775
C         3.27582168857290   -0.32770044720700    1.75631444536117
C         2.32738334556209   -1.31259989604849    2.52342594404216
C         0.93321511586463   -1.09671473865939    1.98908070216383
C         0.01827355323911   -2.11793887938182    2.65155510555006
C         1.12889508758916   -1.58772253585544    0.37368284369558
C         2.27829844840121   -0.88468726720759   -0.46680341779532
C         3.40120896450070   -1.86776913528958   -0.75568273037411
N         4.51664497743494   -1.19347921534331   -1.18105494760941
N         3.43617730862643   -3.16524383267340   -0.67651338678180
C         0.57192050591624    0.47919991777068    2.27384024564390
N        -0.56551161462992    1.03996161869095    2.56094969539949
O         1.64954091073182    1.13880577840177    2.67104604262881
C         2.14351812347195    2.42931457436463    2.19727496759938
O         3.40306748112925    2.36729290133200    1.48373863042469
C         3.54450514613038    1.54827343071265    0.28494855535654
H         1.38798930850337    1.28060722102495   -1.13944929290092
H         0.84757981435813    2.02133437255968    0.40231109674916
H         0.31564748619116    0.43166389573623   -0.09332212320731
H         3.60126993734354    0.46768725020463    2.43173067418751
H         4.17452672742180   -0.85198196515456    1.39335801140061
H         2.36807125685055   -1.00538190070501    3.57265840478647
H         2.67578794699305   -2.35129852982207    2.45881088052024
H         0.58736516254345   -3.04534947737190    2.61245409121807
H        -0.94882220546204   -2.12564968692146    2.11939732333579
H         0.03379833963462   -1.92471419165713    3.72981244793257
H         0.13550763006504   -1.59173873889380   -0.08803640027755
H         1.44765613818548   -2.63320166356849    0.52688208037332
H         1.88359494590449   -0.66173001353587   -1.47304247972772
H         4.40239089315678   -0.39985526873315   -1.78174842594361
H         5.32656597729221   -1.76475312433712   -1.39473363932625
H         2.58002116007259   -3.63400014027532   -0.38772566808256
H        -1.32438569254146    0.36840719556406    2.44735608641313
H         2.39307361158442    3.08987926444541    3.03418175737693
H         1.44962112690875    3.03211569372513    1.60350521576617
H         4.58025483154127    1.20367408945094    0.31911405134931
H         3.49164447336784    2.21236290501772   -0.58474435406267
