38
 energy: -53.131554022305 gnorm: 0.145378694332 xtb: 6.4.1 (79825abcba525fcdf90b791dcacef51065a7a4e7)
C         1.03680534630923    0.94790542513523   -0.10219364553635
C         2.50200804280270    0.31397386882681    0.30307264154587
C         3.28630283658492   -0.39716770154604    1.65511732508057
C         2.40189249916251   -1.28171226767025    2.60032711330604
C         1.03603046823173   -1.13008065373325    1.97802087093332
C        -0.08787086353507   -1.90793272401977    2.64934873995108
C         1.17362660096640   -1.73751063654084    0.39657037949421
C         2.23508925354948   -0.96153500577468   -0.49391415214644
C         3.49175729179244   -1.78838633379596   -0.71284701118573
N         4.43272707831434   -1.13093507312255   -1.46260672672975
N         3.80241175478718   -3.00654605843840   -0.38041375872048
C         0.70357752214364    0.44196372467834    2.31459227766306
N        -0.44293831320368    1.04491597339869    2.42678575717736
O         1.73497354802076    1.10015973580811    2.82166063774873
C         2.20449955108502    2.40587468229375    2.36499961519675
O         3.35591474315155    2.28418083262365    1.49386297713761
C         3.27580298991915    1.60807457528684    0.20376314117758
H         1.17189504686962    1.02392190635355   -1.18578528153722
H         0.84763405411759    2.00761045641057    0.13015030118681
H         0.19584267614889    0.27045164441456   -0.00038388901440
H         3.80700698369474    0.33786575885312    2.27426047474225
H         4.11384736174908   -0.95767416602672    1.19113262822883
H         2.39153640943910   -0.94174488803252    3.64015502826819
H         2.70968580684100   -2.33495180645606    2.62046368169453
H        -0.06537836424121   -2.98165423180692    2.47018186033448
H        -1.09398397630310   -1.54589375221398    2.37514123655416
H         0.07212504103464   -1.84207525104119    3.73114345217033
H         0.20192502512129   -1.81730950031952   -0.10287693446904
H         1.44334856406360   -2.80689305664740    0.43871898771954
H         1.81378323634383   -0.89075376531715   -1.51151383005730
H         4.32597405223547   -0.16445715157514   -1.70395676213526
H         5.31935873555831   -1.60360516370920   -1.59844405707897
H         3.07544152262615   -3.55237253369830    0.07754029672585
H        -1.22666711357691    0.48446075085908    2.09296271132839
H         2.49630090079795    3.04486011484826    3.20499140988320
H         1.40496690104989    2.88844811691804    1.79465307432980
H         4.32505888858422    1.52647029488605   -0.08794937860404
H         2.92964980571859    2.29521224827674   -0.57610520593347
