38
 energy: -53.120850600074 gnorm: 0.157691217772 xtb: 6.4.1 (79825abcba525fcdf90b791dcacef51065a7a4e7)
C         1.12188230809077    1.07466481630942   -0.09512608288099
C         2.53482876037340    0.34218446491522    0.32911885090263
C         3.26747379471880   -0.25789775492617    1.76159854011946
C         2.39438519191785   -1.31933008075690    2.51598569860889
C         0.99451707888506   -1.14188841487162    1.98239408132292
C        -0.08179202857050   -2.09120280773061    2.49156009976921
C         1.15985380747519   -1.61531839056986    0.35838134038573
C         2.35357273488639   -0.95596074570086   -0.45530561267615
C         3.58595177932030   -1.83136241598023   -0.61575204435579
N         4.52248090784011   -1.38186540065045   -1.51055455800231
N         3.72555195965643   -3.05172432448158   -0.18895025112644
C         0.65272557763584    0.42885564526697    2.31566646542084
N        -0.47522748732732    0.98757736544766    2.64153343987530
O         1.67892829467491    1.12099047382694    2.78680917077482
C         2.07772251269844    2.41430874963775    2.23710334407414
O         3.28892222905764    2.36112201261819    1.44362253005359
C         3.42368202550287    1.56029560101466    0.23184201545476
H         1.24198770576505    1.31330006695664   -1.15664691135472
H         0.90128673143181    2.05718029469200    0.35068235599812
H         0.12818639974144    0.67542125454439    0.07721101678548
H         3.56614091124980    0.63613524570342    2.31499548923417
H         4.18098183934253   -0.77254225668998    1.42259511136641
H         2.40466572815356   -1.17192591493729    3.60000298632634
H         2.86153265353355   -2.26208500672710    2.20382847837439
H         0.32821794762790   -3.09208405091976    2.61651255492030
H        -0.94145103707301   -2.16891291310896    1.80346628646737
H        -0.62243598012592   -1.75731160477139    3.38399299334040
H         0.29410370033731   -1.33725801863559   -0.25250214037732
H         1.21760922063076   -2.71746780765994    0.36439632629534
H         1.94445005997164   -0.69877446948961   -1.44752116596459
H         4.49414012917819   -0.41636494244956   -1.77650809389615
H         5.13835322242473   -2.04104200331543   -1.97334174795813
H         2.94067752233886   -3.27533025045939    0.41941369237645
H        -1.36707805353213    0.61427297483922    2.31745766150431
H         2.52256007221528    2.93686792819343    3.09038412208244
H         1.26074862272262    2.98947533290251    1.79082784825075
H         4.48632393415641    1.32236656054258    0.14892432407499
H         3.16194782165388    2.17068287569769   -0.63941996171558
