38
 energy: -53.124862038180 gnorm: 0.149920466769 xtb: 6.4.1 (79825abcba525fcdf90b791dcacef51065a7a4e7)
C         1.09187048308289    1.03316514093478   -0.03522947485691
C         2.50384004622459    0.30234258014160    0.39508350172022
C         3.32963771718499   -0.38883260467708    1.73269351792139
C         2.39266885365896   -1.41623718667798    2.45695275969278
C         0.96587738545471   -1.13629820578774    2.05478792791270
C        -0.06992324259003   -1.96399120976849    2.80374085294288
C         1.07462858323454   -1.70842517433483    0.45799944868488
C         2.21467871689047   -0.98371474671968   -0.37679651965844
C         3.49588890892504   -1.73335213905611   -0.70447543028799
N         4.53408728571678   -1.01989313242427   -1.24570208166124
N         3.71421208733794   -3.01339825466327   -0.63556899993120
C         0.60708900664912    0.44092004798593    2.33546969471547
N        -0.53503473014270    1.06235950967838    2.33739156633020
O         1.72968726506068    1.06822659073701    2.65229409811607
C         2.20989143731492    2.39378021510405    2.26993693566007
O         3.27833310758263    2.37768237449797    1.29135703277454
C         3.43400768879094    1.46980027547449    0.16024665880583
H         1.40526793526654    1.30586618069697   -1.04795586733627
H         0.79411891466526    2.02177890527368    0.34782543924293
H         0.19948161471848    0.42395309124330    0.05979604670217
H         3.63167938927257    0.42774932325950    2.39353390749830
H         4.17314391991281   -0.98095334276587    1.34260436020177
H         2.44974443128716   -1.31864379271086    3.54513705811826
H         2.80720255344044   -2.39375551656811    2.17932809787376
H         0.11135072354902   -3.03746704131424    2.78718967282818
H        -1.07347147005133   -1.80387153671385    2.37272088542855
H        -0.06014841111500   -1.54548044070295    3.81614832197576
H         0.08820384545836   -1.71963162785416   -0.01829885895120
H         1.37669769727508   -2.76336553272033    0.57615314911632
H         1.84178346033578   -0.70309950448301   -1.37690754599942
H         4.39312895385740   -0.20033229957711   -1.80442956934554
H         5.36981500181182   -1.54824218905997   -1.47018135798883
H         3.00538391581064   -3.68467641644820   -0.34732878353195
H        -1.39103528702230    0.53594225572299    2.16439842969412
H         2.59891055613514    2.93894311877488    3.13624990177443
H         1.40893460179349    3.08110421426472    1.98101027959581
H         4.51665522325649    1.32638763375125    0.15951935114473
H         3.24849418502041    2.01900404362289   -0.76934185787447
