38
 energy: -53.131224298882 gnorm: 0.145821052961 xtb: 6.4.1 (79825abcba525fcdf90b791dcacef51065a7a4e7)
C         1.19042985180707    1.10927167237937   -0.09983965054440
C         2.53485356627722    0.27812027027190    0.36345414614958
C         3.33981994530554   -0.39910545106174    1.72075291082031
C         2.45651388675499   -1.40603406152593    2.53554580361349
C         1.05172427910508   -1.13877016404089    2.05494987436695
C        -0.06228415381398   -2.03443634822994    2.57997983151185
C         1.07166355542860   -1.60593073448829    0.42085899605890
C         2.23043734720345   -0.97162717456941   -0.46045034529146
C         3.49060151524371   -1.77738087584890   -0.73170028934204
N         4.32717659176773   -1.06780937509632   -1.55416996526405
N         3.85443716299629   -2.90658625267131   -0.19930004114055
C         0.65615658220824    0.42588748818554    2.35578445079645
N        -0.53434848366010    0.93147258592625    2.48889626667585
O         1.69148465889704    1.13723424490303    2.77554585887632
C         2.15140004180951    2.44305711439390    2.30950943106000
O         3.27992359095757    2.28539513167650    1.41451072676208
C         3.45984003788350    1.46460205060871    0.22210812710872
H         1.35447897804382    1.21703746273721   -1.17672078698221
H         1.06464162546034    2.18306924826915    0.10963666371113
H         0.19849898086087    0.68791696943014    0.02288126019861
H         3.75905404419176    0.42944467209170    2.29737471119605
H         4.24974750283542   -0.93721686759931    1.40971082922789
H         2.57824230713547   -1.14141002336832    3.59009948517241
H         2.77394685322129   -2.43985332733701    2.34870426202657
H         0.28633156763718   -3.05749123375144    2.71154860382100
H        -0.97382427874318   -1.90505484377411    1.97098016208375
H        -0.36499659398535   -1.67394012137995    3.56923376495986
H         0.12977136071502   -1.42108977954792   -0.10705421344200
H         1.15972502269896   -2.70291794745748    0.50434223132720
H         1.80569391435801   -0.68580691677034   -1.43816076134451
H         3.81622347150664   -0.44113659701362   -2.14572196444243
H         4.96855417682321   -1.71011522404520   -2.00590272630741
H         3.17527933994393   -3.31500195413723    0.43950779113972
H        -1.27935152680260    0.26945049791744    2.27331348134298
H         2.57721057311361    2.98738682737622    3.15887812961241
H         1.30819809593432    2.98644821337733    1.87228941370926
H         4.49254668982766    1.11268167197653    0.17350332653387
H         3.22905692802564    2.04831234470421   -0.67577622498620
