38
 energy: -53.128938679639 gnorm: 0.144849113740 xtb: 6.4.1 (79825abcba525fcdf90b791dcacef51065a7a4e7)
C         1.27607804245084    1.20957985144826    0.02788579092187
C         2.61403252975792    0.31287710371960    0.37245927906141
C         3.32060197385400   -0.50559423538120    1.70652440712988
C         2.34186894186494   -1.40759742075751    2.53507384707077
C         0.98783486320803   -1.13346377172684    1.92903858627996
C        -0.11421132424345   -2.02109544066532    2.49161601623002
C         1.13711176515439   -1.63417690143988    0.31166655173298
C         2.22008918458747   -0.84600262188208   -0.54141319732439
C         3.36449994974643   -1.77844412536730   -0.90432657358140
N         4.10064295068109   -1.28378565560725   -1.94989455930907
N         3.68567467186238   -2.87511829310607   -0.28377540940705
C         0.64633471724565    0.40352163760412    2.39399264222433
N        -0.50728363795927    0.99333066910265    2.50320495809187
O         1.70255635891170    1.05501850255935    2.85666502465882
C         2.22738899811062    2.34717839877147    2.42220102211321
O         3.43811573680250    2.23278433668766    1.63448271271490
C         3.55992515697643    1.49120904257998    0.38423325673550
H         1.36079288114563    1.41829399377285   -1.04330997282914
H         1.39962970304896    2.26011237380241    0.33425264372468
H         0.28337146678088    0.85369784165723    0.28167450179758
H         3.83696104012052    0.20883954833824    2.35282381083974
H         4.11261652290219   -0.98616712266086    1.10983194968826
H         2.31733801861958   -1.15121463335773    3.59836743609122
H         2.57440735647504   -2.47939500748174    2.49468146910552
H         0.06131815423806   -3.09138834154266    2.39597572785671
H        -1.03273592160916   -1.84409864598657    1.90551852470008
H        -0.20298780123306   -1.82874552136326    3.56648156055190
H         0.17076784923935   -1.65083066119200   -0.20400923677338
H         1.45852465649422   -2.68508229837521    0.41363132166778
H         1.67465754454525   -0.46835023378964   -1.42340007324326
H         3.94265402548945   -0.30444825627015   -2.09012074890574
H         5.03231941084849   -1.66451944114056   -2.07239047850137
H         3.15251846251664   -3.03482158794521    0.56850007057097
H        -1.35309931531623    0.52404798228889    2.18048479287106
H         2.57537964043995    2.73019939564398    3.38720571639689
H         1.44726486554759    3.04901917582859    2.11195820430249
H         4.62692292123119    1.26261924846119    0.34000801514776
H         3.45158099555145    2.19056442626648   -0.45203131818099
