38
 energy: -53.124795859422 gnorm: 0.162359814305 xtb: 6.4.1 (79825abcba525fcdf90b791dcacef51065a7a4e7)
C         1.22018285958746    1.19210655760406    0.07004176856477
C         2.60001823540978    0.34098236804453    0.36085249904157
C         3.35507913717893   -0.39974093233696    1.71365607850959
C         2.37074995231699   -1.37440640001438    2.44792140015158
C         0.96411553949131   -1.12141696885825    1.96500083069000
C        -0.04879404056380   -2.06962474635291    2.59253995027282
C         1.06354976286711   -1.56158382695450    0.32632589839077
C         2.23891005331257   -0.87441497389249   -0.49106691328216
C         3.40043966385530   -1.81440273414647   -0.77053295305303
N         4.37879596299563   -1.14081703378029   -1.45530094336582
N         3.39633854635846   -3.11409349464041   -0.72908060458385
C         0.62479202599569    0.42360226471651    2.40420912010655
N        -0.52803075287233    1.01635513966938    2.50560445322521
O         1.67909311531146    1.04287343031576    2.91319879880712
C         2.33518889377535    2.25641234361874    2.43283738724853
O         3.27792873074421    2.40736486623440    1.34292900091706
C         3.55110779852366    1.50760992720814    0.22771180283755
H         1.39887247178539    1.32317939799144   -1.00191368837757
H         1.12128793131175    2.17722734795851    0.55222541045800
H         0.29458665988292    0.62690271668197    0.05151182862656
H         3.74624287402180    0.43144539199221    2.30599505829383
H         4.25525630259765   -0.87473533614302    1.29135213324561
H         2.47987469073200   -1.06702523356005    3.49220860966484
H         2.52331090362109   -2.45135099736920    2.30173239679854
H         0.33492907693288   -3.07493020241238    2.42640122792191
H        -0.98721879069879   -1.93118298229733    2.02798841134654
H        -0.16750542518322   -1.92154524918318    3.67151898644006
H         0.03286845138617   -1.53668687623446   -0.04393834853322
H         1.30411389444148   -2.63701094220801    0.38707650858029
H         1.86139224217158   -0.47380706856143   -1.44762923238415
H         4.34080235685439   -0.17235561611163   -1.20159915281278
H         5.26196447366298   -1.63312231105427   -1.53035686352350
H         2.59345394807892   -3.59169046637396   -0.32483855698007
H        -1.34035163224089    0.51837235427226    2.14238737867783
H         2.83718592990205    2.75711902681129    3.26730033689393
H         1.54424657382146    2.94622682145675    2.12301327444031
H         4.59203472372566    1.17766238466423    0.24500794530421
H         3.42763083844030    2.11990783244323   -0.67229906722448
