38
 energy: -53.127667733686 gnorm: 0.156767479889 xtb: 6.4.1 (79825abcba525fcdf90b791dcacef51065a7a4e7)
C         1.13612283406241    1.09142446970136   -0.17761793311325
C         2.53008130645296    0.35832879459552    0.30443952174487
C         3.23657687074405   -0.22594862337278    1.75645513827993
C         2.51982375858591   -1.26260638551498    2.68899356289431
C         1.11043791139772   -1.21308160660142    2.15325565808099
C         0.04347619937632   -2.03406825058397    2.86491763493627
C         1.15507733306217   -1.66897847975432    0.51647378559964
C         2.23948088154949   -0.96325775102123   -0.40430360274952
C         3.43890557940884   -1.83892941541940   -0.72897073628030
N         4.68324258159823   -1.27003069858348   -0.81720660736754
N         3.30731703287735   -3.04927465307266   -1.18578581753527
C         0.68325912164746    0.36250508172943    2.32696139457286
N        -0.52227399682944    0.83837062247924    2.22265777971310
O         1.64862278122377    1.17467151439689    2.73016946727190
C         2.09502272500596    2.44947025778150    2.17384158342001
O         3.27589849630076    2.42290181362182    1.33463249452779
C         3.44052560913466    1.55705256468951    0.17226502496989
H         1.40961758730920    1.40242501632595   -1.19086905673893
H         0.90395775692407    2.07080432060251    0.26921393274501
H         0.27820006852781    0.43672142881648   -0.28651931540543
H         3.74300378417084    0.56219941066663    2.31957118575971
H         4.04178687142107   -0.81579351536692    1.28955140859496
H         2.54683460691251   -0.88369441063485    3.71496786974783
H         2.89416084362069   -2.29043356947960    2.60011864922360
H         0.15431769511290   -3.11559492297392    2.80576721003456
H        -0.96563199151064   -1.77714847678548    2.49855926617009
H        -0.01640817094027   -1.75333292623013    3.92218639353543
H         0.13557507746976   -1.66993117362878    0.11568248547346
H         1.47202663399594   -2.71870871519308    0.64183240009787
H         1.76818787588617   -0.80242858191413   -1.38920700663097
H         4.80555655589763   -0.31494712784456   -1.09393802427966
H         5.41785430191389   -1.81778318121959   -1.25113899970390
H         2.36769409086185   -3.43691316772258   -1.13120301283057
H        -1.13721680170040    0.12306022741160    1.83541741033209
H         2.40463398327649    2.98949178682105    3.07470463893345
H         1.15271985188970    2.88977042084996    1.83380363287375
H         4.50674239980047    1.33201480954661    0.09992452913246
H         3.06662993457256    2.24158805676293   -0.59701257729228
