38
 energy: -53.136035573394 gnorm: 0.144403011339 xtb: 6.4.1 (79825abcba525fcdf90b791dcacef51065a7a4e7)
C         1.02439383949002    1.06301343468081   -0.01531305888632
C         2.49859259169011    0.38628508372601    0.27052904439675
C         3.31950093996416   -0.31543184763457    1.60565762959151
C         2.47121326166928   -1.23912511939239    2.54651949438785
C         1.07116384918580   -1.08991828970129    2.00482284167833
C         0.06462378509529   -2.04824194804910    2.62722306368209
C         1.15152123249578   -1.61201430912981    0.38932044389322
C         2.27013046264891   -0.91486247760310   -0.49639767399308
C         3.44208804587129   -1.86015616490139   -0.70559746406361
N         4.58566003123471   -1.29298181689742   -1.20595963666142
N         3.51417275707715   -3.13272736953896   -0.44811444204162
C         0.59987901022623    0.42661216821170    2.42094155217944
N        -0.57569192307926    0.98197628675120    2.40541640145102
O         1.60647304839655    1.17956030059622    2.83802143316956
C         2.13819409960162    2.40606049933200    2.24907707295411
O         3.25894705405523    2.35914131033472    1.33193107455105
C         3.43931642023272    1.55982858153278    0.12509172172400
H         1.08592737391395    1.26978777607627   -1.08846568573292
H         0.90553802893803    2.05666225426820    0.44433850943362
H         0.16569458233760    0.43314706139977    0.19067481393134
H         3.76994817903639    0.48929296650732    2.19239479656936
H         4.19809734494675   -0.78987380501741    1.13955417993493
H         2.49999696289595   -0.87493994669682    3.57776525593282
H         2.91600605733996   -2.23877147894839    2.46094930966677
H         0.64195053423300   -2.89811079023108    2.98764135346357
H        -0.78261772882765   -2.34784884540369    1.98617462910828
H        -0.38602382074386   -1.57686806609556    3.50752931567213
H         0.18203521765598   -1.66643556360236   -0.11778371837692
H         1.38531707400947   -2.68968162427443    0.43490420470061
H         1.82490223639532   -0.67391145409175   -1.47707717876063
H         4.57756503764596   -0.46227961917552   -1.76595423508693
H         5.40806452823050   -1.83738735667346   -1.44102971227425
H         2.71144996568685   -3.58765898954214   -0.01822199274768
H        -1.31892489289669    0.30787899198822    2.22382260463798
H         2.60224896018950    2.93757222103667    3.08644497771623
H         1.29810723102481    2.99080467024277    1.86209766795373
H         4.48236214606681    1.25036447096450    0.21985979829157
H         3.23829550477784    2.21401236621592   -0.73036664845626
