38
 energy: -53.129299572779 gnorm: 0.166109629316 xtb: 6.4.1 (79825abcba525fcdf90b791dcacef51065a7a4e7)
C         1.14558661908391    1.07713656579298   -0.04942709721874
C         2.58225020646708    0.36706394642093    0.33099836331257
C         3.24608979207561   -0.42103047284336    1.70471218854727
C         2.34004669719247   -1.39923984040149    2.52946343721562
C         0.96291501200136   -1.09110243539525    1.99617555921710
C        -0.14661089014771   -1.90471743106598    2.64876430023241
C         1.08950129438151   -1.59401720755309    0.37755201111301
C         2.22438350118785   -0.88081975875714   -0.47403215398784
C         3.40772340682436   -1.74551584780558   -0.87756228050302
N         4.46616445143470   -1.10950643384434   -1.47338145366877
N         3.57604607109761   -3.02915404627823   -0.75561307168512
C         0.70096070677196    0.46982712199498    2.43207426262765
N        -0.49486847529723    0.97941529800626    2.40125508637701
O         1.76316193352272    1.04862283700370    2.97137209298539
C         2.26225042156945    2.29989466629422    2.40646946594794
O         3.48887692414552    2.08310504447926    1.66631065141935
C         3.50611945958620    1.56248899870692    0.30375540782975
H         1.44077991367702    1.42966306229095   -1.04279739717585
H         0.82675796996195    1.96641779637601    0.51649818526438
H         0.38306088134148    0.30590405731167   -0.03263467671824
H         3.70513966048452    0.34776440062215    2.33158769357489
H         3.99078346882884   -0.99082603046807    1.12588268823413
H         2.49476714523566   -1.26192533592678    3.60376947669555
H         2.71660304554439   -2.41966989461707    2.38323228040058
H         0.12509422600321   -2.95799276082878    2.69642949825182
H        -1.12846806965529   -1.78654532455630    2.15833856646995
H        -0.18687695581187   -1.61361495963364    3.70415697188076
H         0.15183860990132   -1.43571547633204   -0.16627579710919
H         1.23576228421900   -2.67829053164007    0.52268742466470
H         1.75676983994613   -0.59353457956878   -1.43154065801531
H         4.28683864537650   -0.21673639094076   -1.89114876041912
H         5.16475562971631   -1.69756344491765   -1.91399897934232
H         2.77897370960774   -3.44633282696744   -0.27940755643183
H        -1.27243354202385    0.51434880192764    1.93340422048421
H         2.61697643649925    2.99605784469289    3.17364800809668
H         1.52309875219821    2.87553897390757    1.84103759915507
H         4.54851965137857    1.34218061727356    0.06383989830432
H         3.12819730163939    2.32458103925658   -0.38658176583925
