38
 energy: -53.129181078079 gnorm: 0.148047102661 xtb: 6.4.1 (79825abcba525fcdf90b791dcacef51065a7a4e7)
C         1.14653244778442    1.16958074327225    0.05457399837415
C         2.52774655110595    0.34644119689114    0.41181030968171
C         3.20396811021180   -0.45547652486454    1.77141240060969
C         2.28005560677854   -1.37816529074982    2.63919889574047
C         0.92203534164084   -1.15398351874909    2.02165555331631
C        -0.22962371643513   -1.98341564195345    2.57357303067306
C         1.13377841073322   -1.67860656817846    0.41890009688815
C         2.22440211022126   -0.89347043148809   -0.42721160184145
C         3.45157840440101   -1.66460075199644   -0.88571525405436
N         4.12806580702286   -1.10753112274774   -1.94015544974358
N         3.96606131028352   -2.76405023556879   -0.41940063395629
C         0.65779488339042    0.42911076529527    2.36679066246403
N        -0.50423317740332    0.99485237997624    2.22443708547382
O         1.70302836453543    1.06840404512112    2.86969135614669
C         2.36143822747522    2.29464888909017    2.42617643487216
O         3.55693310172151    2.13060292518582    1.62410019552128
C         3.62256690557247    1.38711525000185    0.37077923300670
H         1.42495279140035    1.70120634063513   -0.86087938445421
H         0.66841286841068    1.98207289566660    0.62378608395986
H         0.29606265658335    0.56754759704027   -0.24673030365844
H         3.80216052736528    0.28074761869195    2.31444561966654
H         3.95176903827112   -1.03670434188853    1.20816535249590
H         2.32139492889823   -1.19200769320690    3.71649345310714
H         2.51939128563750   -2.44813407857171    2.59081549264833
H        -0.01714855298406   -3.04602710370130    2.67938295506384
H        -1.13716390281092   -1.81635661450547    1.96777796630059
H        -0.48580789516765   -1.64481116143828    3.58349003821264
H         0.17327350166604   -1.59351876360702   -0.10091700314375
H         1.53063693179071   -2.70800961819340    0.44952487929838
H         1.73969022603592   -0.56700928309070   -1.36342490949590
H         3.80022858216159   -0.31996158764912   -2.46549590461851
H         4.84604290063028   -1.64482722588147   -2.41323712750349
H         3.51847735957380   -3.23889471575030    0.36183268284144
H        -1.35954936352426    0.51556197796593    1.94426993604708
H         2.82328028411209    2.68500544865730    3.33906213315804
H         1.71652797450765    3.12476855548962    2.12217504661941
H         4.62259738678839    0.96211905865761    0.26118602418633
H         3.40789656083830    2.14578679047801   -0.38981854990292
