38
 energy: -53.133004595872 gnorm: 0.153406378842 xtb: 6.4.1 (79825abcba525fcdf90b791dcacef51065a7a4e7)
C         1.10870343187929    1.10485062897441    0.01152606450887
C         2.52733169487824    0.32566028944164    0.31695225949811
C         3.24838057053778   -0.42084815607010    1.68504550824352
C         2.35722589576033   -1.36471426579973    2.56423967920644
C         0.96498883169699   -1.08607056773739    2.05446527571662
C        -0.11017708673412   -2.01127095478774    2.60846133604675
C         1.12903677653671   -1.63177604205248    0.45315851315844
C         2.24097389656748   -0.95853501928135   -0.45906195675880
C         3.39463421766159   -1.85113496501107   -0.88703674837103
N         4.24792166023361   -1.13504849698415   -1.68636560921211
N         3.74555054826342   -3.07128465841655   -0.60592537411586
C         0.69542468619454    0.50144029740644    2.37426711667904
N        -0.45373176758172    1.08642838930988    2.54119743460390
O         1.72354213367202    1.12553433279599    2.92888339595122
C         2.31278956614175    2.34566030241571    2.38302118730801
O         3.43706444560987    2.26150077786304    1.47287365078927
C         3.51000990060104    1.47152575897669    0.24873576063399
H         1.19853086247947    1.33159134038326   -1.05558135383488
H         0.80429352233164    2.07942085705496    0.42419022229004
H         0.19339009426204    0.52617320893858    0.07366296089494
H         3.81082862234966    0.33231643287353    2.24284522760994
H         4.00225471226137   -0.99885700324000    1.12660232302562
H         2.48665815982827   -1.16619464771514    3.63230541159210
H         2.68488205057751   -2.39842099858267    2.39527943052477
H         0.40870643946080   -2.92299458760615    2.90001659457805
H        -0.87647768919578   -2.23695297234461    1.84663682839703
H        -0.60384801719836   -1.69328545795173    3.53333425885709
H         0.18855339287232   -1.37386055146718   -0.04583051718445
H         1.19622312011347   -2.73323027849919    0.43341628701944
H         1.75889383499757   -0.68738225353687   -1.41409747259652
H         4.03537288374337   -0.15640220379569   -1.71465117370986
H         5.18380600300473   -1.46081343630770   -1.90080018117879
H         3.13359942129392   -3.46814202551250    0.10411281089216
H        -1.28254441087368    0.54012804762904    2.30795024411526
H         2.84733499927949    2.94948188145095    3.12376224009153
H         1.53849731713397    2.98677225879711    1.95073456682493
H         4.54023141288027    1.14930891511797    0.08286433193441
H         3.25561132489570    2.19249312873155   -0.53590572611880
