38
 energy: -53.127403680919 gnorm: 0.158948578837 xtb: 6.4.1 (79825abcba525fcdf90b791dcacef51065a7a4e7)
C         1.04184931029114    1.17000944070502    0.10841919247508
C         2.45859677865175    0.34724409536773    0.27816230945033
C         3.25145224998715   -0.40999451375869    1.59984131313335
C         2.36715409592155   -1.36240103452031    2.47674545337305
C         0.96268641879414   -1.13479295711698    1.97524631673223
C        -0.04659389670828   -2.09533776212613    2.58973475677815
C         0.99855592141786   -1.55472607588082    0.32865617781406
C         2.13146909792225   -0.88643176662629   -0.56111587160804
C         3.41048018806512   -1.68787163707983   -0.74182022525736
N         4.42175135782353   -1.08087443721076   -1.44088456900027
N         3.59744689548698   -2.90811316821101   -0.33318193856261
C         0.72634353883009    0.41712731498138    2.45567765847552
N        -0.45618983347842    0.95747121211873    2.47242952715180
O         1.79736300711057    1.08979679354287    2.84880753523352
C         2.40199907145453    2.33591826030458    2.38460718546756
O         3.48191095403380    2.23191539143729    1.42418067007095
C         3.47766937647838    1.45921690808980    0.18691989819976
H         1.16555171318985    1.59507007771437   -0.89269005991684
H         0.92383731353806    2.07875435167472    0.71915653192769
H         0.12548794504612    0.59254500501275    0.16624426811973
H         3.79801531853341    0.36826499043060    2.13866057265007
H         4.06985858207148   -1.00722675918285    1.16647777225602
H         2.50272990947844   -1.19747350181322    3.54975303090168
H         2.71395336912068   -2.38317231197257    2.27128988500079
H         0.33624931050527   -3.11438673138953    2.56840792788005
H        -1.03655764451640   -2.06851991903859    2.10210975827715
H        -0.34435947126623   -1.92550458561834    3.63026732942804
H         0.00607398755366   -1.31533735654528   -0.06844845754535
H         1.23022287657876   -2.63351783170847    0.35403305265674
H         1.75585227893144   -0.73446681455327   -1.58768126857358
H         4.08118023175940   -0.48166479948945   -2.16799167640593
H         5.21118735064898   -1.59207804278209   -1.81962746078375
H         2.85459871221172   -3.27550910295031    0.25786034803377
H        -1.28782753037635    0.41785166314107    2.23374943436033
H         3.05182369938215    2.66688557651135    3.20144573532527
H         1.55344960505436    2.98517952593259    2.14828462218258
H         4.52290565343012    1.19256038223614    0.01642407120432
H         3.30794726053730    2.05468670771408   -0.71684167165050
