38
 energy: -53.130503963785 gnorm: 0.155540304715 xtb: 6.4.1 (79825abcba525fcdf90b791dcacef51065a7a4e7)
C         1.09755216825552    1.16466051104117   -0.04654392167245
C         2.52030936670826    0.41994626940870    0.31964120006196
C         3.28107801573871   -0.25266816043723    1.70444672747991
C         2.45463610266527   -1.24367202725851    2.59491142204048
C         1.07734870377865   -1.14661330353350    1.98705015039000
C         0.00949753368576   -2.07582510911998    2.54843099984844
C         1.15272478872604   -1.52974623556297    0.33283819920346
C         2.32569063865505   -0.85527863988493   -0.49845502597170
C         3.46826628203710   -1.83682772900884   -0.70317807511299
N         4.22338867734689   -1.57135701077884   -1.81633636781668
N         3.72414187744653   -2.94583228105008   -0.07423630664383
C         0.64008851765896    0.39883618901101    2.32692989552009
N        -0.55665083964013    0.90627125023628    2.35794499248492
O         1.67152478522843    1.03715745501500    2.85872240254770
C         2.20412694710281    2.33181268353654    2.44148355941543
O         3.26173619999953    2.36000237748063    1.45147680032689
C         3.43446487937331    1.61789234808528    0.20755853028870
H         1.32264260473044    1.30411271746570   -1.10865782404102
H         0.97418459182532    2.19374143246537    0.32563497614525
H         0.20543981913545    0.57107043534021    0.12172204682079
H         3.70761659609241    0.47865241143483    2.39580791436952
H         4.10728673728434   -0.88538847975555    1.34206105176405
H         2.42393289211544   -0.92584662824157    3.64132027564506
H         2.81251774468424   -2.26568958726421    2.41642733054806
H         0.39034778463559   -3.09511503676030    2.58697568047049
H        -0.98482697839136   -2.13576592381056    2.07277205962900
H        -0.19784698905629   -1.80530586439770    3.58960499209012
H         0.14736156967029   -1.22172598225772    0.02561227125352
H         1.20480176105990   -2.63213404595927    0.32124868471975
H         1.92016360829081   -0.71119996812162   -1.51472615490458
H         4.44576278512694   -0.61945081362565   -2.03576738070554
H         5.06078374114307   -2.13160597332151   -1.92980485150680
H         2.96238449843337   -3.12049836885721    0.57795356949359
H        -1.28604805125718    0.36274410117657    1.89714496939813
H         2.72552982569770    2.84084345543768    3.25883497727892
H         1.33111468523037    2.86554234758910    2.05366015979004
H         4.51356899082667    1.45414179063502    0.16996247304070
H         3.28853685091263    2.24418731852262   -0.67936562813033
