38
 energy: -53.121401024963 gnorm: 0.157433099963 xtb: 6.4.1 (79825abcba525fcdf90b791dcacef51065a7a4e7)
C         1.20909994438730    1.12552916224373   -0.12104950478260
C         2.59960850345366    0.33670222609524    0.27539333776133
C         3.27928720014499   -0.35369700149735    1.69322663141599
C         2.40295038266933   -1.31661258814461    2.56663926123279
C         0.97897655839104   -1.15183913050228    2.09654934354520
C        -0.04828121871634   -2.10159103170802    2.69788278491845
C         1.10689982229261   -1.59903158285762    0.46175758787384
C         2.24392587258987   -0.96213627513171   -0.44562322489543
C         3.48013237553867   -1.80106072014487   -0.72638737488809
N         4.50758197031177   -1.15781866338585   -1.36700653091573
N         3.80409774929352   -2.96258568900679   -0.23972799392021
C         0.58717972601977    0.42042098298589    2.36040946919320
N        -0.54138762409033    1.05098274783433    2.49956744282448
O         1.65543202264353    1.09652086480468    2.75518035962014
C         2.07482461552181    2.35536260934565    2.14418707469403
O         3.25632260008404    2.40826384051777    1.30710323813265
C         3.47103741423990    1.56344682837392    0.13745503347123
H         1.16703546940453    1.03094472733297   -1.21076640660519
H         1.21534159787049    2.19630719853149    0.13612685585477
H         0.26069870195551    0.81866251217689    0.30661274896420
H         3.80725878646865    0.33816483051654    2.35452719845698
H         4.02650307417586   -0.96209384258523    1.15862307518782
H         2.53271697154048   -1.21056276212712    3.64776886294084
H         2.74091743275336   -2.29664712174079    2.20640833674885
H        -0.03965115467935   -3.07573303752325    2.21161390052080
H        -1.09585027710252   -1.75359272461053    2.69321336195404
H         0.20699278792599   -2.41225172627995    3.71697100447911
H         0.17979175753212   -1.40100554801216   -0.08712834110078
H         1.15274779528411   -2.70175403844165    0.46427809856965
H         1.90075210343441   -0.87851655219657   -1.49121270008316
H         4.36934034702636   -0.33061154050314   -1.91504233860032
H         5.24117683962139   -1.74406532692518   -1.74928641045402
H         3.03418042997917   -3.39323681125749    0.26811165598136
H        -1.38335480707612    0.50393489917801    2.32177929479024
H         2.39476380465167    3.00624902913007    2.96456650805518
H         1.16527120153793    2.75981904254466    1.68970678350667
H         4.46754887902313    1.14109759809340    0.28332975614700
H         3.32969656557003    2.23592235204948   -0.71575905490555
