38
 energy: -53.129017754393 gnorm: 0.150551790987 xtb: 6.4.1 (79825abcba525fcdf90b791dcacef51065a7a4e7)
C         1.05730325783741    1.09871932103569    0.02452686586058
C         2.45973416278099    0.30071661262427    0.35514468385267
C         3.28954475542041   -0.38299805725191    1.69410477003442
C         2.42515521291869   -1.34007474736142    2.58565241995200
C         1.02615789244460   -1.09253255056386    2.07834022521140
C        -0.08991748718601   -1.97840401287556    2.61545907323045
C         1.16301973507678   -1.63988348895321    0.47504195470904
C         2.25839392925533   -0.97393136245118   -0.46222373164058
C         3.45075689087851   -1.80825493983349   -0.90154589840462
N         4.53928679449611   -1.13464587119015   -1.39262569958344
N         3.39934156613413   -3.10524329430305   -0.97970492562761
C         0.75501396056902    0.49242802439837    2.40926282210682
N        -0.40353072937005    1.05609456652274    2.58445297740362
O         1.85202378010351    1.09592619350051    2.84109322616608
C         2.28037215903142    2.41238750547224    2.37490360154015
O         3.35822974989347    2.32526196895972    1.41049832459904
C         3.36885944709172    1.49876434768363    0.20854830399790
H         1.17232873974554    1.35437028999993   -1.03358951754497
H         0.72090024281346    1.93803249960990    0.65312103898441
H         0.21011921257389    0.42150736329907    0.03831896455907
H         3.83664877886991    0.35213396337677    2.28992633386766
H         4.06889870105267   -0.98265328216436    1.19681182138739
H         2.38637144825910   -1.01985439703927    3.63106234610744
H         2.63116485797864   -2.41211780203049    2.47278325171088
H         0.13005501699039   -3.03083186879056    2.44372594165225
H        -1.03131742272525   -1.76248605913602    2.08097692137196
H        -0.21218210995472   -1.83692888486132    3.69492738865825
H         0.18120922687272   -1.48735710884494    0.01373590360744
H         1.22780563709785   -2.74144706391242    0.49662155109936
H         1.87962225927390   -0.59792589743920   -1.42823085598218
H         4.69617477328456   -0.15045069855131   -1.49495669163446
H         5.21993670328179   -1.82749785998898   -1.68358327704879
H         2.53141051863857   -3.54778084270032   -0.68476359475928
H        -1.29051001413824    0.62659897572622    2.32257515334170
H         2.84592317645354    2.77408742007046    3.23998270473197
H         1.42508037214234    3.06009011958528    2.15953871048710
H         4.38927017572074    1.11332654078174    0.15476124689433
H         3.10817570604341    2.14856536185736   -0.63405331106295
