33
 energy: -44.344390163301 gnorm: 0.126569579268 xtb: 6.4.1 (79825abcba525fcdf90b791dcacef51065a7a4e7)
C         0.00724740803342    1.94974895873170    0.53109367253506
C         1.27147254364031    1.27628881372565    0.06309799391008
N         2.27669223987671    2.09814664157497    0.04638493998711
C         3.46895788666598    1.32575634202392   -0.40019991373427
C         3.76730175901561    0.30845614392802    0.73823394639280
N         3.42538573660274   -0.99874932991795    0.04869189370074
C         2.32584797604916   -0.91673009636076   -0.64127339471462
C         2.28487985796913   -1.65113629539520   -1.98548088372336
C         3.51648226962894   -1.15221099267607   -2.84917146395027
N         4.16772554928464    0.18931290387300   -2.84780157356454
C         3.39717969124569    1.37802280235882   -3.23898454236184
C         4.04794813882663    2.56242332372627   -2.48779195632188
C         4.61762666767529    1.93609069001089   -1.21028120421431
C         5.18643704022354    0.64582531094363   -1.87979187669198
N         1.26056286661654   -0.02663669404562   -0.43263459913781
H         0.23831667564019    3.00126648198942    0.66307398916438
H        -0.28021033765641    1.55939596330867    1.50927061222775
H        -0.86740745258819    1.81907735208401   -0.13088261037781
H         3.00235630956066    0.70173541851450   -1.12392386063212
H         3.08554665546638    0.21505075855312    1.59388356431410
H         4.77870018135118    0.13887133745284    1.12222496371191
H         1.35522769792247   -1.45430411223609   -2.53360520053866
H         2.54495184359885   -2.71469558712647   -1.97895631198791
H         3.10110638702427   -1.29958687621823   -3.85811940586960
H         4.31846429105386   -1.89246557260211   -2.73346212604653
H         2.34300976269762    1.15739858526240   -3.03569112875067
H         3.49445277303209    1.57659054183989   -4.31203892382787
H         3.35541239104585    3.40310526686831   -2.38687624634553
H         4.84587698379356    2.92394124119648   -3.14963202826515
H         5.38987421654420    2.46575861445366   -0.64575994926199
H         5.35673824423692   -0.08462297360096   -1.08468027386707
H         6.13391827657465    0.94282746160567   -2.34442805468671
H         0.31661160080373   -0.39940289308732   -0.53603951216753
