33
 energy: -44.338848861746 gnorm: 0.130160053656 xtb: 6.4.1 (79825abcba525fcdf90b791dcacef51065a7a4e7)
C        -0.02312312894593    1.99587911724197    0.24518559751499
C         1.35175074638128    1.39440010317831    0.10815086991373
N         2.39213880688711    2.16722210007147    0.18899057808371
C         3.52893124060706    1.30914794299362   -0.24567465052866
C         3.89185720595022    0.15437906632789    0.73143024170446
N         3.35878172661005   -1.11082540496732    0.08625652533586
C         2.31167565380605   -0.86099242973734   -0.64375365984724
C         2.24430359977070   -1.52246801305087   -2.02427372241364
C         3.59985692391272   -1.18853720203526   -2.77440555114405
N         4.13539816003533    0.18913475085724   -2.97194445443553
C         3.37896119005259    1.40707159539677   -3.29478993127843
C         3.84172418604447    2.53491675244520   -2.34378510949010
C         4.59843858206082    1.87751688887234   -1.18444536292008
C         5.12817631810388    0.64007314670113   -1.97481580481000
N         1.31440945887056    0.05211378262210   -0.26649259214626
H         0.13636088035507    3.03535569212961    0.51080602725285
H        -0.54062523956078    1.42284047310619    1.01697301366790
H        -0.60457784701717    1.81625192677365   -0.67674350843334
H         3.05528927029366    0.77546673176287   -1.03418155635985
H         3.30814506166410    0.22382588472243    1.65885038444883
H         4.93193277589947   -0.06068573805981    0.99812258164997
H         1.40125246132365   -1.15591816095645   -2.62289069888428
H         2.30394535736869   -2.61162408542180   -1.92929856402724
H         3.43225762316246   -1.63330787706132   -3.76754312493329
H         4.41246976185262   -1.78852905338846   -2.34520768930194
H         2.32389374644291    1.15245088978149   -3.14221706908570
H         3.49539075347762    1.50986304961506   -4.37932438240948
H         2.96447205334730    3.10607471884710   -2.02638450592193
H         4.39443215474245    3.32933845142344   -2.86226942692394
H         5.49379018741616    2.28796869313696   -0.70960492154266
H         5.42556871604760   -0.16182834857933   -1.29417536515613
H         6.04272722886147    0.81972026987236   -2.55199973640258
H         0.40642786093766   -0.36865063410874   -0.46452773399598
