33
 energy: -44.339941464051 gnorm: 0.124058015115 xtb: 6.4.1 (79825abcba525fcdf90b791dcacef51065a7a4e7)
C        -0.06532808538082    1.87273227588584    0.29221455664601
C         1.28875020590654    1.26343151057755    0.03519652404057
N         2.37384227737510    1.67795749391081    0.61566154931700
C         3.42003805489834    0.77463184033216    0.06158634436686
C         3.36935467591305   -0.68592447544295    0.59464061079470
N         2.95309005919272   -1.49205661184297   -0.62110430670419
C         2.10341498478835   -0.81232607081660   -1.33369198008069
C         2.09549757074623   -0.90030810951934   -2.86343741496551
C         3.47218379314502   -0.39097971226124   -3.46097569207108
N         4.34224775209346    0.64877613327661   -2.83992614732852
C         3.93049658611628    2.04726840294158   -2.65424738523738
C         4.46825748331639    2.50270230843030   -1.27802514968514
C         4.78237236468138    1.24741728011124   -0.45677533702227
C         5.17014250552605    0.32966053452094   -1.65841230233848
N         1.24884699557834    0.19579876025463   -0.86037744966032
H        -0.64711366338949    1.35159719895563    1.04483974977254
H        -0.64119074991011    1.84753706717774   -0.63492347716191
H        -0.01471520886017    2.89483730081941    0.70820547967906
H         2.97477283834554    0.67298588399350   -0.89877946314572
H         2.60872761288039   -0.79412344555368    1.37910877889601
H         4.31469483244549   -1.12346548875352    0.93231608371457
H         1.20677741367072   -0.36461392634572   -3.21930893282081
H         2.01104238850574   -1.92687355337153   -3.23474468091171
H         3.17484595196042    0.02017817411896   -4.43810010753637
H         4.26110566078652   -1.14755558832348   -3.55964627385714
H         2.84144680889036    2.17018107134230   -2.66610284827864
H         4.31580576732746    2.64880433105224   -3.48492678562025
H         3.81801966912387    3.26745584168195   -0.84342338886460
H         5.40574940835813    3.03900531867708   -1.47527093067824
H         5.63464434656748    1.41723725036619    0.20684524584734
H         5.05845706116871   -0.71743264215258   -1.36535616975652
H         6.11702297560098    0.64862205611400   -2.10952057582212
H         0.38461414916180    0.21034381077246   -1.40220882555188
