33
 energy: -44.345479454000 gnorm: 0.130616950474 xtb: 6.4.1 (79825abcba525fcdf90b791dcacef51065a7a4e7)
C        -0.10200372847084    1.73850476567606    0.49249199038813
C         1.24562442440499    1.24375241248576    0.03428660283330
N         2.37007837989716    1.57115494789245    0.59518508425880
C         3.47872056136844    0.80247219035909   -0.03533968521934
C         3.21531484524599   -0.66003876855313    0.42468152886193
N         2.75322744604789   -1.46748983431000   -0.77350834109576
C         1.90950131556349   -0.72743188034653   -1.43092979600021
C         2.05584931121118   -0.81519060652869   -2.95369218233982
C         3.53328229800415   -0.40965225321543   -3.35923228535473
N         4.38876632008134    0.58753034148936   -2.65383877972809
C         3.98195046765703    1.99925271541235   -2.61727310508100
C         4.63183986378736    2.54462207146382   -1.32467475208395
C         4.86509021354881    1.31928862473553   -0.43416246840959
C         5.32956643054506    0.32582181116078   -1.54495499957887
N         1.08336161803418    0.32214097272280   -0.99905159112172
H        -0.32161661872087    2.66356449308482   -0.02955742431169
H         0.07860140685275    2.06359167591078    1.51891189945558
H        -0.95369509515111    1.04129096674140    0.39855838027468
H         3.13590273804826    0.64367358345703   -1.02939925785107
H         2.54646372330051   -0.77591406448268    1.28773537414214
H         4.13723156873933   -1.22821697290559    0.58709445640888
H         1.29837360845863   -0.15409697072003   -3.39257949814139
H         1.92280995250739   -1.81741769110657   -3.37402511041766
H         3.45741333281347   -0.02421875289823   -4.38778351656704
H         4.15526539884897   -1.31352582074445   -3.38550483257978
H         2.90028811216664    2.11415439789487   -2.48280509864151
H         4.20087581934156    2.48813266078824   -3.57299533995901
H         3.88928002431465    3.19724297127892   -0.85645822319826
H         5.53193172856951    3.15354976153133   -1.48107048671001
H         5.60948754942184    1.44089926123857    0.35747007388797
H         5.39338536824165   -0.73903601608434   -1.30670177141365
H         6.36425886211182    0.59532287838617   -1.78702624792020
H         0.27910537126307    0.48615130005561   -1.60482688072208
