33
 energy: -44.340659481784 gnorm: 0.114305128342 xtb: 6.4.1 (79825abcba525fcdf90b791dcacef51065a7a4e7)
C        -0.07834413483555    1.78054541224615    0.67382979954034
C         1.26398228222251    1.32933193096004    0.15866003158327
N         2.24935498939178    2.17051159800632    0.07117503058493
C         3.43585147727627    1.39838290203366   -0.39095646713810
C         3.73879075489791    0.29431928980599    0.66223474504897
N         3.33656877624184   -1.04165671589522    0.06679663567488
C         2.29116901969996   -0.84327881012245   -0.68123282885618
C         2.25395001947497   -1.52133525251496   -2.05483350184212
C         3.56143568168875   -1.25644914400067   -2.91043209628277
N         4.14251463033822    0.09365021864846   -2.65866829415470
C         3.52975048091508    1.26909536815655   -3.29321147510697
C         4.05256438660131    2.49727256003935   -2.51292891824759
C         4.62197805450342    1.89969520503043   -1.22160042109924
C         5.25366406813038    0.60967625029972   -1.83266375142542
N         1.25499461347836    0.07512486143999   -0.44991908111312
H        -0.09470701757371    2.83874205381865    0.43623131681578
H        -0.11023152219614    1.72180453791851    1.76349499736524
H        -0.94690212339123    1.21885986150195    0.28598298392367
H         3.07686910230609    0.73475154073563   -1.14036994588545
H         3.12867710119878    0.47202865745012    1.55768522419541
H         4.78284416629937    0.31082192308395    0.99210594247337
H         1.37880850783163   -1.10346628272499   -2.56761919888392
H         2.12833876628811   -2.59930663458704   -1.90978908844144
H         3.30016304931406   -1.21952497493307   -3.97935956512183
H         4.41464316680599   -1.86329152554763   -2.58131211521552
H         2.43507339503166    1.32093678041804   -3.27671791423047
H         3.78044459798015    1.22551648964523   -4.35885224155023
H         3.28917510291759    3.25686462606582   -2.32111503784287
H         4.84970215709350    2.93389960200502   -3.12883972757703
H         5.31649910272291    2.57012151791281   -0.70801722686142
H         5.70766843578603   -0.10716816145246   -1.14362545573134
H         6.08021734938217    0.88021311540316   -2.50007458719037
H         0.40985400519727   -0.03998041480211   -1.00954335575429
