33
 energy: -44.341161457109 gnorm: 0.134607742318 xtb: 6.4.1 (79825abcba525fcdf90b791dcacef51065a7a4e7)
C        -0.06517171265480    1.83060414421165    0.58297784965709
C         1.28016596068199    1.33061382961900    0.12372855139960
N         2.30836413906340    2.12108061854970    0.05917640132291
C         3.47731285596771    1.32837710863364   -0.41273694042498
C         3.75939328995737    0.35375442733399    0.76644992291990
N         3.43055350469873   -0.94388677060612    0.05290057771507
C         2.33760726645304   -0.83230023422694   -0.64336049303006
C         2.13826432143510   -1.53622763016149   -1.98971602322719
C         3.48853098607303   -1.22633523331887   -2.75944260544822
N         4.09840717909233    0.13449323127290   -2.75771995269959
C         3.50064217010571    1.32389837941460   -3.38044672984375
C         4.04187646520818    2.50079690934496   -2.53630826282917
C         4.62592837105696    1.88797168057979   -1.25873692681355
C         5.21653444827536    0.59840861545014   -1.91049307972216
N         1.26618410191284    0.04645013086966   -0.41868529099987
H        -0.04914024203160    2.65732004840422    1.28496410820522
H        -0.47065265082111    1.03735218333145    1.21398820928590
H        -0.67980500144761    2.11152815177925   -0.29087363173033
H         3.08405588666928    0.70571409137779   -1.17989742652238
H         3.16103182516781    0.41205567138938    1.68526185653095
H         4.81533127091349    0.18099590009099    0.99943993397403
H         1.33993952705972   -1.05461600724915   -2.56778528983800
H         2.16045367641258   -2.62978568725920   -2.03948322237695
H         3.40582259213330   -1.45152287717253   -3.83400417393520
H         4.31674377904389   -1.80228217201029   -2.32713559672701
H         2.41480970079047    1.20027887362887   -3.29699878422920
H         3.91474300618862    1.43848371760625   -4.38827985142149
H         3.34889289327636    3.31515279610989   -2.30579985037412
H         4.85382440421897    3.04821712833063   -3.03278542516653
H         5.28881310192274    2.55952325306144   -0.70628697836863
H         5.61776127736708   -0.13796415521516   -1.20939977222716
H         5.97186964740423    0.88463911885768   -2.65168035995829
H         0.38363075393115   -0.44233753130145   -0.56993806646841
