33
 energy: -44.343929528605 gnorm: 0.119138702681 xtb: 6.4.1 (79825abcba525fcdf90b791dcacef51065a7a4e7)
C        -0.09108732283017    1.80354994140510    0.69008404037312
C         1.18327183631537    1.21344129473084    0.14362798536929
N         2.28349557384089    1.86141219883602    0.37992794259612
C         3.39587114801389    1.07166042876335   -0.21709373948319
C         3.50775618856429   -0.20097870464078    0.67049387659564
N         3.08461838409438   -1.28887839011019   -0.29831447769521
C         2.07191730890012   -0.86273868122246   -0.99444952799986
C         2.07232139756503   -1.10931880964615   -2.50677313411618
C         3.49558778579263   -0.82861262789339   -3.14493391572940
N         4.36890222102615    0.36798910019382   -2.97384260168539
C         3.96563584731629    1.76554774265796   -3.18360989826042
C         4.33582544736852    2.63364420408779   -1.95888027311850
C         4.67400500162123    1.61748029478968   -0.86256580860433
C         5.22215772436455    0.47347591496611   -1.77215752417403
N         1.07080614800513    0.03698282599732   -0.59581885332485
H        -0.76136577355667    2.20969571077773   -0.05976482205111
H         0.11664802004810    2.52518793230274    1.48249944555989
H        -0.61233055456285    0.95949325319293    1.17607025317909
H         2.96212842330987    0.69733269034202   -1.11299634792719
H         2.97916960381095   -0.19504011466107    1.63289285978225
H         4.54927640235588   -0.38780663906886    0.95239074114984
H         1.36780537708920   -0.45723144555819   -3.03769267102640
H         1.99113675886432   -2.17961736269379   -2.72289448246813
H         3.48330051158539   -0.94218486505625   -4.24000609825352
H         4.14890668739864   -1.59315983846576   -2.70540845417401
H         2.93333618049941    1.89869269625879   -3.52698623474156
H         4.76427448913652    2.16570456027919   -3.81795030080476
H         3.53798354676580    3.28567590279553   -1.59167619459241
H         5.21567431683855    3.22832236351303   -2.23752301281474
H         5.43816049361310    1.92916401082575   -0.14526651706280
H         5.27973585127151   -0.48616141350689   -1.25202233919361
H         6.19496216948867    0.72282613189552   -2.21180935045055
H         0.22810136280139   -0.06810725493433   -1.16105855659288
