33
 energy: -44.344854049120 gnorm: 0.120017066227 xtb: 6.4.1 (79825abcba525fcdf90b791dcacef51065a7a4e7)
C        -0.06961986187008    1.78938386406210    0.54961828588117
C         1.19088143616925    1.17725471230856   -0.00469939426465
N         2.30737848870960    1.70925273682409    0.39103874165803
C         3.37702095741354    0.79013823911150   -0.08709900694728
C         3.21822994892961   -0.61652049941850    0.55791031170407
N         2.81527152993957   -1.46505911285663   -0.63321003932455
C         1.98749789413257   -0.79599546511952   -1.38081098212857
C         2.24563299362988   -0.92222872895086   -2.88592095183452
C         3.54941084824971   -0.30108149562341   -3.53866267490440
N         4.41238571768181    0.58718523328568   -2.70796259398131
C         4.08855039136090    2.02068389537593   -2.71088038940406
C         4.56589351449301    2.56908080769756   -1.34632960837305
C         4.76027127123975    1.33374676694293   -0.46031210855719
C         5.27656034037757    0.32901318810454   -1.53759134699031
N         1.04497762936698    0.13773715558291   -0.92208699843708
H        -0.50075134888030    1.09146963061533    1.25922541410510
H        -0.75675191405229    2.03361154049142   -0.26281012687053
H         0.23295240855185    2.69960203707417    1.09757968652907
H         2.99880770603156    0.67586028946907   -1.07441394277515
H         2.50741458086183   -0.38787673410128    1.36296583387992
H         4.13848061622539   -0.99794116425488    1.01265404241577
H         1.41440386935313   -0.59344966760619   -3.52184451101712
H         2.23412617660940   -2.00336050600753   -3.05872155195687
H         3.22837611146434    0.32415658376188   -4.38615707285164
H         4.10342007831091   -1.19812149933523   -3.84351288339713
H         3.01194906701562    2.21830314721405   -2.76703830499348
H         4.49465295134779    2.51845303070617   -3.59837320599455
H         3.85417310627187    3.27681909431858   -0.91147739149872
H         5.54794600419081    3.05123089733835   -1.43864495981484
H         5.48264831227172    1.41518527857325    0.35647293846156
H         5.07725484078627   -0.66389793973132   -1.12629526846530
H         6.32551706716769    0.48119231919945   -1.81750033548969
H         0.14783688719466    0.01250186835795   -1.39128398009269
