33
 energy: -44.345675497614 gnorm: 0.116339750262 xtb: 6.4.1 (79825abcba525fcdf90b791dcacef51065a7a4e7)
C        -0.13045251448580    1.74365250254556    0.55006005972169
C         1.17002900826941    1.17953760938162    0.03883026692031
N         2.26480788260471    1.68654174500934    0.51904090073624
C         3.40176836720456    0.90571987118114   -0.04235041830544
C         3.44165310152917   -0.55086514260579    0.50236023832732
N         2.79277013052557   -1.40839431962698   -0.56757225754246
C         2.00810053596497   -0.73616648585195   -1.35761395831893
C         2.16226770144080   -0.91621721111146   -2.87146296611611
C         3.60010446376491   -0.48132544755674   -3.37666288303541
N         4.46457939535880    0.56254651445316   -2.75471395914083
C         4.04552336140739    1.97115237711813   -2.75893491900404
C         4.55767465206661    2.61214447945307   -1.44842942711460
C         4.76785646073842    1.41869594017118   -0.51015223002143
C         5.15710136975843    0.26284485601780   -1.48435507961919
N         1.04439118009374    0.19552596446206   -0.94067006854618
H        -0.93705229702892    1.02309736795805    0.46821876938027
H        -0.46311508872440    2.59504944447718   -0.04684562444592
H         0.06289840926801    2.14380674062363    1.56139620729919
H         3.03871784723425    0.76677908162008   -1.03219145067284
H         2.87745098759421   -0.67277033897969    1.43641909356832
H         4.41491109627819   -1.03681577985002    0.62788204807575
H         1.45109358649026   -0.23504755876275   -3.35486300380708
H         2.03538554444169   -1.95975334062939   -3.17768450762421
H         3.39569282675337   -0.03410616905597   -4.36177380035880
H         4.15479509754157   -1.42705192955450   -3.42626503920305
H         2.95186505347080    1.90492809117835   -2.78727825282813
H         4.42783175838184    2.46445614608729   -3.65939512576852
H         3.82930325211271    3.29545815430848   -1.00223059724451
H         5.44370502146452    3.20595510735088   -1.70873126366282
H         5.52402052881871    1.67213221782537    0.23790163232949
H         4.96007623638597   -0.79195869080015   -1.27619593684257
H         6.21179917920195    0.33946954530133   -1.77342070721157
H         0.23635980389085    0.35794403853359   -1.54183299329262
