33
 energy: -44.344604088832 gnorm: 0.119194525475 xtb: 6.4.1 (79825abcba525fcdf90b791dcacef51065a7a4e7)
C        -0.07769461547729    1.83786060583702    0.60858898855601
C         1.17339223589977    1.22350509317287    0.03571666630359
N         2.33089166929687    1.59266983587006    0.49409281624801
C         3.40466154255890    0.74872759364022   -0.09945745121655
C         3.36627844676450   -0.71429192767705    0.42783849872679
N         2.83259557420621   -1.52231631808207   -0.73982589434203
C         1.91764656311938   -0.82234965774039   -1.34371124611175
C         2.09740721543244   -0.80440155180404   -2.86531849248329
C         3.62426563979281   -0.57490205313533   -3.22276179807470
N         4.41001205203465    0.60187013093530   -2.75200085756236
C         3.93345775836647    1.99206477174307   -2.75915104212763
C         4.48948473233929    2.62554541321765   -1.46295246589012
C         4.70554200360608    1.45176864225513   -0.50148106214211
C         5.27163118028561    0.45469785096283   -1.56071069234489
N         1.07097495330448    0.21437804787175   -0.92066087430754
H        -0.98580635010630    1.44261013445271    0.16630960990365
H        -0.01633394441410    2.92759518530367    0.63206131600275
H        -0.11779716191405    1.50118458013984    1.65994517838262
H         3.10408450846349    0.69483708102263   -1.11810594395993
H         2.59398273132748   -0.73607280165862    1.20805370988783
H         4.33077520825072   -1.14996863158545    0.70902647846597
H         1.50587654130104   -0.01194591972780   -3.34023095891432
H         1.84087144615088   -1.80840159511502   -3.21888842351988
H         3.70911939444199   -0.45744215054613   -4.31419926148384
H         4.13508833905173   -1.47271523200860   -2.85190829039544
H         2.85065167264241    1.99023154177564   -2.92887173829822
H         4.38416600928749    2.45418059257623   -3.64438996293168
H         3.92271171410738    3.44260474557803   -1.00719127290999
H         5.50259604906982    2.92431794564272   -1.76254946284330
H         5.37932366679151    1.77611922564979    0.29627428931864
H         5.40483506716745   -0.56548481927851   -1.19159864817175
H         6.27072915028777    0.70001694352146   -1.93944482116577
H         0.35539539718308    0.45664117040964   -1.60618672168623
