33
 energy: -44.340132298478 gnorm: 0.129215656230 xtb: 6.4.1 (79825abcba525fcdf90b791dcacef51065a7a4e7)
C        -0.03024140540603    1.94113775353881    0.49717937370502
C         1.31001314606418    1.34566688759101    0.15081848043754
N         2.37578724404056    2.08141639700184    0.05597938152522
C         3.47793430014853    1.19786698999584   -0.41533206869290
C         3.79961018724879    0.23797607748187    0.76580063681820
N         3.36374849196695   -1.06215326823388    0.11707171205934
C         2.26718027458127   -0.94706677345250   -0.57289623355138
C         2.19953543333977   -1.43889846569402   -2.02253424173900
C         3.59909319290445   -1.14833932709433   -2.70703830815906
N         4.20129633344212    0.19158319002856   -2.96348529636051
C         3.54679937621236    1.42307229176333   -3.42702015568376
C         3.80925241516622    2.51507213834548   -2.36435877991080
C         4.60237607702515    1.78924819355958   -1.27211596164229
C         5.25866701341336    0.57829998519842   -2.00659616334546
N         1.29359360177460    0.00613030574362   -0.23500118428497
H        -0.00030795191760    2.94697066994050    0.90203123785170
H        -0.66890857892297    1.29650980415771    1.10413619105960
H        -0.50525700764011    2.22122515233956   -0.46001445223891
H         2.93865187641830    0.64043020704853   -1.14288563490598
H         3.17734605408228    0.55958557811171    1.61138063242061
H         4.85840818804402    0.08802471988503    1.00158922338287
H         1.42836818219785   -0.96000611638250   -2.63848837185078
H         2.07963610776859   -2.52458296807051   -2.09837406463688
H         3.44747834714872   -1.63921684246668   -3.68083752838197
H         4.27669770484161   -1.80957826805834   -2.15192045011260
H         2.49976206592123    1.22005577993778   -3.67955659959032
H         3.97159907721133    1.69163185266128   -4.40054872614554
H         2.89185113110645    2.96914286401465   -1.97870280385385
H         4.52288919080353    3.16562649541918   -2.88677576600139
H         5.34253385876162    2.46766730413287   -0.83908871144575
H         5.53886215682285   -0.22184877013314   -1.31665971359827
H         6.15586955748494    0.97287694990868   -2.49767086229846
H         0.34670568150064   -0.36070869426741   -0.33259018777251
