33
 energy: -44.339291463286 gnorm: 0.133219463794 xtb: 6.4.1 (79825abcba525fcdf90b791dcacef51065a7a4e7)
C        -0.00228708709096    1.98097410329655    0.37220138463016
C         1.32348755058139    1.32104901721005    0.09353635392685
N         2.37011174770108    2.08145152532692   -0.01854420157315
C         3.53419787920820    1.22143013002765   -0.36895659827776
C         3.84016401679849    0.21538052217171    0.77742436177236
N         3.31134647493401   -1.09085466751515    0.21594187574253
C         2.29558815409851   -0.91246300259613   -0.57663238851135
C         2.33224938204436   -1.55130611899421   -1.96891828643855
C         3.66411799626084   -1.18820179446610   -2.74738704011950
N         4.13502697761836    0.21933684425517   -2.89190608810822
C         3.33154292274677    1.39622312300663   -3.25127819066820
C         3.93688535912450    2.58767398156834   -2.47371800070407
C         4.57823153049551    1.89230835178316   -1.26789809770165
C         5.18081558285529    0.61061917678650   -1.92420583339530
N         1.26027587041507    0.01915128964547   -0.40098490818251
H         0.28799323723692    2.95779085646422    0.74377544184829
H        -0.62454307157412    1.28786823195491    0.94162151077955
H        -0.57832263986064    2.24106898107467   -0.53380219711144
H         3.05044733063484    0.57628123868427   -1.06225581767923
H         3.20903115365371    0.53093293581715    1.61870245723624
H         4.82525997972180   -0.02159265759126    1.19283322424381
H         1.51855683539803   -1.03596373739239   -2.49404968315476
H         2.23802102649298   -2.63555076511414   -2.08880541315355
H         3.44453309551615   -1.47272642703684   -3.78808917072469
H         4.45302534818263   -1.87680423278165   -2.41876488830438
H         2.30617688365924    1.14621915760225   -2.95564328744432
H         3.24952508868465    1.44253535332777   -4.34282074764867
H         3.17740166779850    3.32652240354614   -2.20201337705992
H         4.71220799846939    3.14393793815891   -3.01673101987445
H         5.26304368218968    2.47253441078448   -0.64342338323092
H         5.40163145391166   -0.19441257863968   -1.21856861832237
H         6.07637577689044    0.87963725568394   -2.49641118251854
H         0.31912219492433   -0.32604122165599   -0.59009621065434
