33
 energy: -44.343359355651 gnorm: 0.119231861227 xtb: 6.4.1 (79825abcba525fcdf90b791dcacef51065a7a4e7)
C        -0.06856854796705    1.94131143826852    0.56134743333776
C         1.21665995163396    1.38498227430407    0.00500286685022
N         2.31972969653357    2.06976678864910   -0.01743707564148
C         3.47407193704942    1.21636663244441   -0.41332132016145
C         3.78365535181355    0.23746539943626    0.75537491723008
N         3.36579356241957   -1.06896638333050    0.10746405370411
C         2.29714509934339   -0.79599349341336   -0.58191161011259
C         2.29393554716114   -1.50689842742873   -1.93930930280470
C         3.56378830511286   -1.16935604962801   -2.82546474888464
N         4.19794354503678    0.17684099277441   -2.92245284835230
C         3.57142882354883    1.41838630211088   -3.39767994128476
C         3.97391065044668    2.53989012662830   -2.41237186163957
C         4.62592336633223    1.76283682473956   -1.26349088562509
C         5.26949097971977    0.52709601648963   -1.96729476690794
N         1.19359741934639    0.02541166430413   -0.30243913865148
H        -0.10353473246267    3.02213208901113    0.47705628980892
H        -0.21773485114553    1.83727216294955    1.63780587578007
H        -0.89651263223086    1.39687839204131    0.07307491833178
H         2.99104201338445    0.64560637916608   -1.16950272681761
H         3.06654027436432    0.54517581697873    1.52784570669524
H         4.80496164580596    0.26865899957270    1.14919630814518
H         1.41545877616614   -1.25696719755994   -2.54696813377669
H         2.27385376474328   -2.59798563552505   -1.85006918722647
H         3.26158252925262   -1.37457167191993   -3.86411335935184
H         4.36550917358517   -1.83835188313960   -2.48748712566753
H         2.48177042067796    1.30276632441505   -3.37414110215432
H         3.76317879075190    1.75645944423485   -4.42202138729883
H         3.15565232159962    3.17395383462189   -2.05888580526431
H         4.67077257304272    3.26047700446918   -2.86020658070062
H         5.27372074417510    2.32349054800797   -0.58406127658657
H         5.50551977074435   -0.26225064281166   -1.24897595535994
H         6.19859827057693    0.79017224050428   -2.48630178693268
H         0.35873848807623   -0.40667510846934   -0.69867491939451
