33
 energy: -44.340136150691 gnorm: 0.131038343107 xtb: 6.4.1 (79825abcba525fcdf90b791dcacef51065a7a4e7)
C        -0.04044041614881    1.96998093925845    0.50761481424869
C         1.26277028770510    1.36545430461791    0.05261690443639
N         2.30580777487625    2.12965305516125   -0.06683726552599
C         3.49038245734529    1.28136323343826   -0.37458613008786
C         3.73942438882799    0.26249211364933    0.77424812890364
N         3.37693507191598   -1.01294247416997    0.03734307360414
C         2.30610651612191   -0.86221653270136   -0.68540890220335
C         2.22120349781060   -1.58386765725264   -2.03445884033582
C         3.58860944209868   -1.22845481823931   -2.75252225244423
N         4.23713985122172    0.11058237859275   -2.85348627471823
C         3.53356909941987    1.33307646803185   -3.26615156883427
C         3.89803587395419    2.55860378362402   -2.39676026976373
C         4.61697946179415    1.85584717383938   -1.23999185006621
C         5.28052270763364    0.63237643990580   -1.94667724294020
N         1.27513133396213    0.04018801407475   -0.37981937970118
H         0.10743987382129    2.99451902437855    0.83158091971990
H        -0.33453054219263    1.31057918345317    1.32647857817010
H        -0.92556114134792    1.99174425006275   -0.15298827481862
H         3.02620586565048    0.69471417043073   -1.13041578181000
H         3.18126477703159    0.32529289022300    1.71773355925457
H         4.79991230027484    0.10750488683984    0.99892394695816
H         1.35976864917607   -1.15977977209606   -2.56503944628946
H         2.09486830729140   -2.67119246516621   -2.00991204246620
H         3.37569014421065   -1.58409865640873   -3.77252987680957
H         4.40228109718873   -1.89392207630215   -2.43687622108313
H         2.44089681033177    1.33563040853458   -3.35181507485238
H         3.78032009179041    1.48715664336892   -4.32242338497807
H         2.98175806425347    3.03400611369607   -2.03487151396031
H         4.57519721308256    3.32658794261366   -2.79308182575119
H         5.42713685536688    2.42851948385232   -0.78032887340830
H         5.48656694040982   -0.08860205853118   -1.15138142767722
H         6.16958436243620    0.91703494024080   -2.52144385456551
H         0.32041000434616   -0.28084136005622   -0.54149349956061
