33
 energy: -44.337586963670 gnorm: 0.131365936862 xtb: 6.4.1 (79825abcba525fcdf90b791dcacef51065a7a4e7)
C        -0.07590542884638    1.94046764380017    0.39579178226585
C         1.24201545523825    1.28346418657969    0.07600326255073
N         2.27781261708816    2.06232647338944    0.15782009586389
C         3.46620327732221    1.32517216093509   -0.35389594809172
C         3.89326695495892    0.19144850855086    0.62192559456963
N         3.33107816078459   -1.09766566035248    0.05334019272056
C         2.21068959138567   -0.95858930169359   -0.59253111038028
C         2.24982361193043   -1.58294662840899   -1.99130594867197
C         3.56503037007439   -1.11170741549588   -2.73956869382596
N         4.16180438788364    0.25400534558811   -2.78952324299059
C         3.44358421837544    1.40278091349990   -3.35897097963368
C         4.07363353361609    2.52778343608189   -2.50574085417664
C         4.60020633968261    1.89311565014028   -1.21392903104696
C         5.24123396270150    0.61941930044095   -1.84903194720439
N         1.17818877666883   -0.06897306197089   -0.25614777125673
H         0.06725753571283    2.96636431608303    0.07401344491289
H        -0.33918313322400    2.12154636937860    1.43969449603881
H        -0.89382846035211    1.38656663769392   -0.09868206115018
H         2.97315778749275    0.77421613573152   -1.11825783589813
H         3.54247859139459    0.40067762429054    1.64115154825641
H         4.96469475499364   -0.00991322574474    0.72503132443914
H         1.35006374059402   -1.25016934099891   -2.52340345850524
H         2.16840941807806   -2.67052209961244   -2.08820632021657
H         3.30879212793986   -1.33267000422796   -3.78730445058921
H         4.32792185840772   -1.80943133222335   -2.37116868989260
H         2.36203753027499    1.41146462827056   -3.18160456679645
H         3.57516971804624    1.61009409986752   -4.42669912711792
H         3.51655408573041    3.43941047729347   -2.27093349512099
H         4.95115216311481    2.94131475558133   -3.01991089157979
H         5.26327800953985    2.56534785701411   -0.66253221648549
H         5.58586093708876   -0.18651468059765   -1.19599112367361
H         6.10710377705686    0.96584074130226   -2.42529525141182
H         0.26226743252457   -0.47342787243448   -0.45158468937764
