33
 energy: -44.342219121365 gnorm: 0.124727520854 xtb: 6.4.1 (79825abcba525fcdf90b791dcacef51065a7a4e7)
C        -0.08329459750741    1.92071868294561    0.22080358897825
C         1.29767109049780    1.36555758611424   -0.01491578117177
N         2.41334569696345    2.02131259729441    0.09209711743135
C         3.52834181344618    1.14438857135335   -0.36101443681710
C         3.92761855283312    0.16283694345054    0.77787752049740
N         3.39243885689668   -1.12819831120507    0.18798633558208
C         2.30671777953991   -0.90297867931154   -0.49190215699235
C         2.23855744414211   -1.54315640921904   -1.88238812855146
C         3.48806747645487   -1.15638405488078   -2.77729827328284
N         4.03039729835196    0.23159765713576   -2.83378856265952
C         3.37840379022169    1.48137844529053   -3.24941902547973
C         3.95592360318050    2.57966999301388   -2.32701943564985
C         4.63062635083413    1.84074107775904   -1.16614899762081
C         5.19377767485434    0.67483259890713   -2.03798185056795
N         1.25208645342562    0.01161871006882   -0.34393893897449
H         0.00604714594366    2.97814368604920    0.44523915513660
H        -0.60151045386937    1.41571084077693    1.03827343031700
H        -0.59465694927325    1.76035730904415   -0.74516823934759
H         3.03299378005183    0.56674334195364   -1.10388172267972
H         3.43148133848964    0.58189644549064    1.66325193105876
H         5.00734793360343    0.04373235883171    0.91620117419343
H         1.29051325088824   -1.35343854883549   -2.40070814794359
H         2.29641121908454   -2.62954244852585   -1.75887017947853
H         3.25980396664098   -1.49361849213044   -3.80023591171025
H         4.31264581034058   -1.78204946586755   -2.41239552987374
H         2.28322439179661    1.45062521320147   -3.21918971992339
H         3.84186391958014    1.70631868458826   -4.21634378896353
H         3.18466460423500    3.29973788619304   -2.03857939637470
H         4.68691768366693    3.07236019215016   -2.98148253434578
H         5.30809599912247    2.54595237408271   -0.67695524074071
H         5.68590249803964   -0.14315118709944   -1.50555783428489
H         6.00365439738855    1.01874704007152   -2.69192396936797
H         0.31194835293418   -0.25322793564998   -0.63836685349385
