33
 energy: -44.344477309578 gnorm: 0.132027107673 xtb: 6.4.1 (79825abcba525fcdf90b791dcacef51065a7a4e7)
C        -0.10125900009417    1.80976532917748    0.45547469405798
C         1.17465189492105    1.08510374527108    0.11232650979048
N         2.31028794355699    1.60908940610824    0.46156285054970
C         3.38779730077192    0.79951534165552   -0.17175033118893
C         3.36796192917374   -0.63229046762778    0.43609758323456
N         2.94000381150646   -1.48355410745495   -0.74431040692389
C         1.96700909896654   -0.84193596851157   -1.32169241203573
C         1.97774767560108   -0.85620453325840   -2.85388225156783
C         3.45314052168094   -0.42689803322579   -3.24201139407096
N         4.37085895253726    0.62602633922217   -2.71956601976150
C         4.11283540894613    2.07281354720447   -2.71438329067660
C         4.68104656295140    2.66523583836642   -1.40412897507192
C         4.74565901577381    1.42903698533535   -0.50052644544397
C         5.23598121643949    0.38000529837792   -1.54727912953859
N         1.00919205287583    0.03696938245982   -0.79184276744436
H        -0.88104060214556    1.06545601409717    0.57566291314229
H        -0.42138636468976    2.51797374312516   -0.31120440840413
H        -0.02454467270499    2.37638038414407    1.40065778830319
H         2.99887561608125    0.74293855559424   -1.15989732460999
H         2.71416992327572   -0.59756157143566    1.31757405345148
H         4.33907194772775   -1.09135941128543    0.64901989851188
H         1.22793015422167   -0.21061571295920   -3.32761747747635
H         1.86891042154352   -1.88806614524477   -3.20353127239517
H         3.46290325045736   -0.32059952546093   -4.33783894837104
H         4.05306736278184   -1.33382044010672   -3.09328283101218
H         3.09381102332911    2.31906634085525   -3.03411184469234
H         4.72042596780587    2.52952367559353   -3.50342478008641
H         3.97787406540833    3.38830853599466   -0.98074949750911
H         5.61952579256024    3.13612936861446   -1.72496217154582
H         5.43406263000551    1.56002025613273    0.33884383940832
H         5.28802797519934   -0.64162476284018   -1.16215213546420
H         6.28294718973648    0.65194756922671   -1.72540098764822
H         0.17536588133099    0.04967899541118   -1.37943410673793
