33
 energy: -44.340924017893 gnorm: 0.123381168190 xtb: 6.4.1 (79825abcba525fcdf90b791dcacef51065a7a4e7)
C        -0.04466636651366    1.90711957892982    0.44126489004931
C         1.31439710273937    1.29790444272401    0.21183710378096
N         2.31459272024061    2.12259111938081    0.13635963563189
C         3.45305577343514    1.24391264109146   -0.25009628789277
C         3.76537870902270    0.03932973434351    0.68337830054296
N         3.35308066647262   -1.16993478971243   -0.13445455938907
C         2.30003452301175   -0.85521524301380   -0.83001760286709
C         2.17939626574827   -1.45595221169904   -2.23446983953511
C         3.50071277584808   -1.04748115766979   -3.00842490038472
N         4.14953190646987    0.28006661756754   -2.80728644481690
C         3.48714901296422    1.52977519151276   -3.20637744929219
C         4.05892314610530    2.58385342581165   -2.23037136244760
C         4.63776239531733    1.79087574459100   -1.05351477178355
C         5.20230279736760    0.54451036001951   -1.80480831393158
N         1.31474207747489    0.02244766679313   -0.35091912432112
H         0.13251969070738    2.95887165439410    0.24397427149999
H        -0.37170888259672    1.77291566472946    1.47415890151762
H        -0.86318429298967    1.43436910188918   -0.13043798850685
H         2.94469425215877    0.75703558852722   -1.04722538278788
H         3.20008694706820   -0.00941120864506    1.62344233772427
H         4.81331383515434    0.10178854119867    0.99493205293149
H         1.22608649187063   -1.24563503706219   -2.73487313146681
H         2.28508214644110   -2.54560239249291   -2.21626688566107
H         3.21092465726195   -1.21092535290325   -4.05796839945370
H         4.25317864206295   -1.79943131079525   -2.73841242478723
H         2.39228497177847    1.47931616942745   -3.20435025489960
H         3.87911939482385    1.64845370269111   -4.22255240219796
H         3.31918822849857    3.31177940191260   -1.88475322528602
H         4.91284754953703    3.02416058008917   -2.76174754686347
H         5.38192215669679    2.29383861121837   -0.42993379318974
H         5.39105356531327   -0.28577591368978   -1.11941973480858
H         6.11928115938088    0.80558204205077   -2.34592752977611
H         0.39162435823453   -0.15528441495358   -0.74709609102635
