33
 energy: -44.344611218226 gnorm: 0.117361326207 xtb: 6.4.1 (79825abcba525fcdf90b791dcacef51065a7a4e7)
C        -0.05239387000142    1.92165020407341    0.38670995907870
C         1.29635927973961    1.31950936943945    0.08817179334439
N         2.34657827515050    2.07806078735498    0.17669309178750
C         3.53376525737828    1.26285024771832   -0.20217495731616
C         3.74515140266603    0.04664834249986    0.74445549411471
N         3.46072964802004   -1.15346582501505   -0.13871561412481
C         2.36760265271244   -0.83476771662188   -0.76741856489911
C         2.15347260180843   -1.33887724472778   -2.19848338273049
C         3.49562063986732   -1.01574807831438   -2.97691678304321
N         4.23066481047236    0.28175433427745   -2.97501616704984
C         3.41377168167929    1.48114621694080   -3.20726816021341
C         4.02965134197676    2.52748568121846   -2.24994875892681
C         4.67869725882642    1.80546020608971   -1.06408261186194
C         5.15190244215226    0.54225077088051   -1.84954635934942
N         1.31807349116206   -0.00826214142945   -0.33613465694825
H         0.01245558176935    3.00416199056472    0.40824328933815
H        -0.44136015526287    1.56534054962851    1.34252698663123
H        -0.72794910681078    1.59472825562063   -0.42387992098798
H         3.04546197985043    0.86585522134876   -1.05940908640183
H         3.13203646914751   -0.02633543023424    1.65242812199452
H         4.78948911540875   -0.00468995285416    1.06981374721371
H         1.22156245426828   -0.88396671116547   -2.55630483807629
H         2.06070759663048   -2.42969228618438   -2.21734002494715
H         3.38677526885488   -1.23991914899104   -4.04935919936154
H         4.12995656206497   -1.75355384765463   -2.46917546636285
H         2.38817631635420    1.22860138553262   -2.91460324829234
H         3.46874731832555    1.82680592928630   -4.24545597931493
H         3.27494069131727    3.28312181528426   -2.01338642688865
H         4.81652375059154    2.99547138298174   -2.85595133357947
H         5.51472855395475    2.23290639002313   -0.50377907021034
H         5.28209640109342   -0.37646362084958   -1.27181540543211
H         6.16948300217537    0.71468275639373   -2.21916070404900
H         0.43240750361307   -0.47842096901181   -0.52385153446737
