33
 energy: -44.341693445072 gnorm: 0.130224713531 xtb: 6.4.1 (79825abcba525fcdf90b791dcacef51065a7a4e7)
C        -0.04605918812358    1.95799187384952    0.45743294680499
C         1.28132022022100    1.33966051341536    0.10167469072645
N         2.31882078810083    2.11088217656561   -0.02082410608030
C         3.50584252396368    1.29752699934646   -0.40417110835574
C         3.75933645872763    0.26803358448614    0.73417178254694
N         3.32561274372013   -1.05886404089006    0.14054952262041
C         2.27491121699815   -0.90125972796410   -0.60975022555343
C         2.38341041272591   -1.57619934767771   -1.98110321777149
C         3.61967534750540   -1.14381582670904   -2.87353015897464
N         4.18967713480199    0.23406587865934   -2.85492890206911
C         3.33654176926448    1.37267695791375   -3.22306081806137
C         3.97910484874158    2.56277085136657   -2.47380540066400
C         4.63023319231962    1.88877785764458   -1.26111201831805
C         5.24403861437794    0.59639310356619   -1.88525869880583
N         1.25402293494783    0.03907300054815   -0.39953551259662
H         0.17196933652702    2.95457744772643    0.82591858902514
H        -0.69693752196477    1.51070912235016    1.21117896799494
H        -0.74035541895215    2.10000156440339   -0.38997178618140
H         3.12068107896304    0.65827730800709   -1.16173693819534
H         3.11578156072703    0.33484308473716    1.62131575996262
H         4.78114262510764    0.04168370472949    1.05637166622568
H         1.44092240697429   -1.49818734562032   -2.53704097682405
H         2.54367628290837   -2.65015029145272   -1.84045261500823
H         3.28343343687592   -1.32684300993021   -3.90584558766220
H         4.45270316883769   -1.85486541572981   -2.80272214544546
H         2.30398916213823    1.23623736324351   -2.88174447953130
H         3.30093075168750    1.51268464963892   -4.30909332424486
H         3.25818968850904    3.31287484764806   -2.13592790906723
H         4.90699693287800    2.92494455615386   -2.93561100357008
H         5.36388751099728    2.45402942559691   -0.67987141553326
H         5.35177520619442   -0.23942390236644   -1.18915352279991
H         6.14620824705537    0.74851675384423   -2.48921738776060
H         0.32470845627435   -0.38093237036927   -0.42525103656354
