33
 energy: -44.339891529933 gnorm: 0.131065577361 xtb: 6.4.1 (79825abcba525fcdf90b791dcacef51065a7a4e7)
C        -0.05776358095103    1.88680692681950    0.56397351101450
C         1.26478094270091    1.33320792097916    0.10003619929619
N         2.27945081945169    2.13048908680800   -0.04482243792419
C         3.48404050810025    1.32372923737440   -0.38485832020044
C         3.69936542973935    0.24043553607607    0.71060977417900
N         3.48552790226653   -1.05253747459697   -0.05336357137382
C         2.36810881248234   -0.84787404456224   -0.68680654505069
C         2.18653135288629   -1.52963768844270   -2.04700968838820
C         3.54551890808220   -1.20263765507064   -2.79397433834888
N         4.21533408162998    0.12962056831721   -2.80952162390051
C         3.45416678877392    1.32590059005035   -3.19596013317796
C         3.96940999469100    2.55709903848131   -2.41540309518246
C         4.64316824518264    1.89420585160542   -1.20896935870373
C         5.23030116317115    0.59327530193110   -1.84097344836475
N         1.31300804358880    0.01453739110628   -0.34970469700267
H        -0.06960368940038    2.90261743686882    0.18385545857775
H        -0.13697380184712    2.00885402040360    1.64594753244892
H        -0.90398008555993    1.40148507313256    0.04562120013345
H         3.11008251597239    0.74650146639000   -1.19594340630463
H         3.12473799795185    0.39809162179231    1.63288886741046
H         4.76474867447070    0.27763261306018    0.96102902161033
H         1.34356832818215   -1.10611960878396   -2.60690440349199
H         2.19867670800467   -2.62367048658423   -2.08923647263834
H         3.36955093792561   -1.31281325023474   -3.87523718262166
H         4.32877346126237   -1.93413438422991   -2.55740405906558
H         2.38418756881179    1.27351773186589   -2.96427500072114
H         3.56391510957080    1.46305827462212   -4.27738511042620
H         3.18842518977417    3.27473164840043   -2.14781751093433
H         4.64069571673827    2.96663442367351   -3.18161075299570
H         5.32446485658486    2.51361852486119   -0.61925629103741
H         5.51582623967501   -0.11621360341763   -1.06003774022142
H         6.09399553487232    0.73136334759206   -2.50186789884906
H         0.41277805860981   -0.40096483349025   -0.58977777301516
