33
 energy: -44.349546831706 gnorm: 0.120351629578 xtb: 6.4.1 (79825abcba525fcdf90b791dcacef51065a7a4e7)
C        -0.10817904918185    1.71433481055735    0.69436905025996
C         1.14590274129807    1.14259109553867    0.08508940933094
N         2.29272458981505    1.57945879750000    0.50952137550785
C         3.38206957925015    0.83560867970964   -0.18151890287207
C         3.32416057957315   -0.60015730406571    0.41443662884836
N         2.76198395775032   -1.43071620749076   -0.72367158357577
C         1.86573142451137   -0.79200744762059   -1.41688514703501
C         2.09684989539651   -0.90311687983658   -2.92756828933998
C         3.58874958199500   -0.56130840081960   -3.33882810569860
N         4.37717432315706    0.53035681256824   -2.69815696103141
C         4.16898944259176    1.98499154568603   -2.72036249266356
C         4.50580689217397    2.66422771454221   -1.37285119805127
C         4.75653629273117    1.44335134364589   -0.48096804004061
C         5.27169189882997    0.40716913369971   -1.52859185210389
N         1.04487150608571    0.26514193421955   -0.99350242183971
H        -0.58830051253742    1.04034223499648    1.39559532902977
H        -0.75917397839471    2.04577877569448   -0.11691883848604
H         0.21354176229346    2.60078294280205    1.26970740434528
H         3.01993275259542    0.81220723607602   -1.18112121455443
H         2.74879160692937   -0.52422819699667    1.34655044435710
H         4.33188447901761   -0.98145020961575    0.60999515518875
H         1.31311188421430   -0.32395616708931   -3.43131813490541
H         1.90492465616674   -1.93364231535847   -3.24382831458900
H         3.58928024115432   -0.37259506430174   -4.42354913236777
H         4.12813104571987   -1.48766915324118   -3.10332005469593
H         3.20363100047477    2.23371735591421   -3.17587982159265
H         4.88813170626197    2.39568632632814   -3.43764981518984
H         3.83183520797504    3.37275740204756   -0.88266376517334
H         5.46735556541668    3.18684652386871   -1.46066721844276
H         5.36752992063433    1.62682277927391    0.40707680675454
H         5.27054178988587   -0.64105303622798   -1.21877155925498
H         6.26365270293677    0.69034218813786   -1.89959661131023
H         0.28581093573512    0.41362604539876   -1.65868714502088
