33
 energy: -44.336592568142 gnorm: 0.132761570101 xtb: 6.4.1 (79825abcba525fcdf90b791dcacef51065a7a4e7)
C        -0.03946510005047    1.91391508784353    0.49292515780393
C         1.25535919422780    1.30310388331922    0.02263437005128
N         2.28041028317613    2.09955204969784   -0.01108241351967
C         3.47839999424527    1.31464082581624   -0.41882888887619
C         3.68850758243594    0.28364352006447    0.72696330737851
N         3.40083278821171   -1.10994273152577    0.20130036409103
C         2.32455344359731   -0.98930096146665   -0.51899878741249
C         2.21873003303845   -1.58147563355949   -1.92827348731865
C         3.48736687748424   -1.10022194600953   -2.74722880127197
N         4.11899503966244    0.24376716219304   -2.88340949197879
C         3.44343936552187    1.46032631306661   -3.35606645984448
C         4.04773211164309    2.57009808084776   -2.46509431383720
C         4.64745388646052    1.85072267926922   -1.25196087746407
C         5.21775383440914    0.57850053467249   -1.95394613686176
N         1.30728806076682   -0.03340232346980   -0.37048042211771
H         0.18497089539813    2.92927257528574    0.80143540100822
H        -0.41823970619292    1.26820212658727    1.28754589195741
H        -0.58077712145574    1.97270344268737   -0.46823769437800
H         3.08797787812838    0.69096683986266   -1.18661585347198
H         3.04561378030563    0.51118988903087    1.58752188218845
H         4.70064686413170    0.22276272228216    1.14048776488371
H         1.26372026790427   -1.56666700551424   -2.46787829780854
H         2.41758127231200   -2.65817679817293   -1.93161455430962
H         3.31299182131192   -1.36633156397814   -3.80127421382777
H         4.31561670599077   -1.64767249595124   -2.27942459638678
H         2.39744911258830    1.41771278635084   -3.03146521028608
H         3.55320422178631    1.65654250463475   -4.42834803786749
H         3.26037760377796    3.27004162538872   -2.17066642051748
H         4.83521191803899    3.11266912453256   -3.00445517783817
H         5.41926503743048    2.39810219240087   -0.70398109291167
H         5.55045725103240   -0.21647158237643   -1.28157167169632
H         6.14898040697452    0.80003677981828   -2.48832101315684
H         0.46285362339376   -0.34158522654037   -0.85281328251603
