33
 energy: -44.344773090576 gnorm: 0.116014387885 xtb: 6.4.1 (79825abcba525fcdf90b791dcacef51065a7a4e7)
C        -0.03333158330676    1.84510391804834    0.54386888746021
C         1.32750107114395    1.44120440340704    0.03806915709006
N         2.39420509111679    2.18144641546928    0.05757602251514
C         3.53080090449014    1.32704443322970   -0.38476928731605
C         3.72963948719777    0.24495070522277    0.71499286008242
N         3.30874653430322   -1.04484591990520    0.03643944422324
C         2.24286166997661   -0.82284044459491   -0.67515422165430
C         2.21140494040054   -1.54650460651621   -2.02543021428063
C         3.56067328848850   -1.22098833890561   -2.79044422726886
N         4.24068427987088    0.10319157834475   -2.87954324368792
C         3.41778292320230    1.28489631747341   -3.17314759500622
C         3.94063623881079    2.52210189730713   -2.40728779961799
C         4.68366004242775    1.86551233117207   -1.23867080350031
C         5.28298127809338    0.62409380093317   -1.97097443206790
N         1.25551159920098    0.16120794944988   -0.50957239984774
H         0.11917613077051    2.65242809887672    1.25201433547856
H        -0.41950962953755    1.08305967552974    1.22356928170171
H        -0.74466041815703    1.94353168932468   -0.29555475710174
H         3.09752403695363    0.72369583853962   -1.14577987976890
H         3.08309905870365    0.50032257472453    1.56494670137959
H         4.73189490678747    0.09691504377375    1.13057003317914
H         1.36177997556112   -1.29589482846121   -2.67255343407266
H         2.21032771803109   -2.62668667404859   -1.84642208524813
H         3.42905844733234   -1.65274001162417   -3.79468560316373
H         4.38795998853624   -1.76229605599923   -2.31386965331094
H         2.32774318341307    1.18805484321009   -3.11221661261027
H         3.64112561892225    1.52348822108720   -4.21886689208485
H         3.09884981694511    3.08954427974437   -1.99992968348592
H         4.65453823630525    3.16675775403334   -2.93660876903154
H         5.29723502935085    2.59105094470254   -0.69763653098861
H         5.61710204246164   -0.15252662789831   -1.27816589026300
H         6.05473147266092    0.95692044606830   -2.67485354734437
H         0.31442599664295   -0.15801509678640   -0.74010598048255
