33
 energy: -44.346072271651 gnorm: 0.113899394700 xtb: 6.4.1 (79825abcba525fcdf90b791dcacef51065a7a4e7)
C        -0.10724531729244    1.78255826779856    0.64949206742823
C         1.16034728951828    1.17987118607099    0.10102969744176
N         2.29496938385317    1.57747745897097    0.59168047873215
C         3.40237869494353    0.80471473467178   -0.03601734108528
C         3.39101240406081   -0.67546831095602    0.44238558923098
N         2.92510111383390   -1.34753428867338   -0.83527435851453
C         1.92184320275185   -0.75822589116381   -1.41661049982138
C         2.00242994338879   -0.64927386074027   -2.94290007373681
C         3.53479670807353   -0.50624107170950   -3.32122016817797
N         4.46353234840990    0.48685372102203   -2.70883230977308
C         4.19618509502846    1.92423965297519   -2.85797446364722
C         4.48018694719609    2.50341630509735   -1.45280834585877
C         4.76213717172921    1.36686197331001   -0.46406761418165
C         5.32309089451351    0.35716390929078   -1.51402726049451
N         1.03825345386243    0.18385009610921   -0.86670982081843
H         0.06816380860422    2.14064120872429    1.65820865584343
H        -0.95180183661298    1.09426980037704    0.58006001926221
H        -0.36814851320807    2.65334289817504    0.02181982253473
H         3.00839993277415    0.66934143327758   -1.01446013335634
H         2.73737995179601   -0.88991110600271    1.29820668828451
H         4.40801455029075   -0.99437892108324    0.69365741641573
H         1.35834052403198    0.16182451695613   -3.30443092398523
H         1.63465324612594   -1.58284916579637   -3.38109618240029
H         3.47289063212415   -0.28663737080218   -4.39833417087309
H         3.98328748693341   -1.50693574707940   -3.27642238565531
H         3.16960996650152    2.18518736047804   -3.13962547465642
H         4.81319076747323    2.26889070642263   -3.69514622345533
H         3.59212641092306    3.05669179592003   -1.13379331752457
H         5.29802386609179    3.23218693418794   -1.37895667815902
H         5.35869278377500    1.60598045815219    0.42054664167409
H         5.31699869162615   -0.64411545163882   -1.07566419197252
H         6.29729444421045    0.73915275624306   -1.84087540938108
H         0.21848251359142    0.42250531342031   -1.42502021670217
