33
 energy: -44.346700727640 gnorm: 0.109313800382 xtb: 6.4.1 (79825abcba525fcdf90b791dcacef51065a7a4e7)
C        -0.05016391779587    1.79447875143302    0.57770705522496
C         1.16209263909448    1.11179412926965   -0.00126571143091
N         2.29028984762762    1.65478108572192    0.34301973620681
C         3.38788915523084    0.78818141679624   -0.16864709625168
C         3.31372436307282   -0.61005643619781    0.50912196340317
N         2.87320327039989   -1.44690139691237   -0.67696093230333
C         1.91252922229712   -0.88082617263395   -1.34660767030651
C         2.07517824022753   -0.80639868480980   -2.86842581886863
C         3.58512355128281   -0.47455307918116   -3.21724672102787
N         4.46707668633949    0.64021138394402   -2.76639762628161
C         4.08818099100596    2.05971060606732   -2.80184139043604
C         4.54384180177174    2.63381206565076   -1.44045415505350
C         4.73977123037398    1.38914451682973   -0.56794383170774
C         5.33988302158435    0.38529146929542   -1.60173269901124
N         0.96252659083314    0.02902388593421   -0.85640704409143
H        -1.04990801941655    1.47266401549954    0.30669430223472
H         0.02701518391436    2.86615585572067    0.38434440938176
H         0.07164825069000    1.61487106285750    1.66085601857302
H         3.00354319635998    0.47375271753062   -1.10902375965671
H         2.53285413762466   -0.60772234858732    1.28105919909562
H         4.25085415494709   -1.00865082179883    0.91167027348839
H         1.40172912626344    0.01952980662811   -3.12870401376651
H         1.85326704522169   -1.68486192628857   -3.48315838454027
H         3.62105360997332   -0.41818164300741   -4.31622989325055
H         4.06917004962078   -1.38717550438666   -2.84662568309783
H         3.01240784517081    2.22386102759178   -2.93239509228273
H         4.55351018032512    2.66895700063122   -3.58454470492356
H         3.88985572220722    3.37591012348355   -0.97341181087434
H         5.54856971536965    3.05871857910652   -1.56452752004355
H         5.39090067246614    1.57057760077344    0.29153922104366
H         5.24291707674591   -0.65229387570237   -1.27192379426855
H         6.34009412840477    0.65412593390623   -1.96107031459921
H         0.01424790064405   -0.01569733166910   -1.22984879471373
