33
 energy: -44.346654104647 gnorm: 0.125225832083 xtb: 6.4.1 (79825abcba525fcdf90b791dcacef51065a7a4e7)
C        -0.03320920346859    1.93710483584423    0.32874019719141
C         1.31940533978082    1.31492401454486    0.09602008216373
N         2.34532846312387    2.10878965163385    0.15480224015080
C         3.49593166759791    1.31066377884904   -0.35178391425100
C         3.91491284173010    0.26593407058826    0.72196420359793
N         3.40043099290491   -0.99529851091057    0.05431028459721
C         2.26616204026763   -0.90642309681912   -0.57600522856663
C         2.25598097413941   -1.51786140102491   -1.98098358204359
C         3.55550246546101   -1.16697742478045   -2.81755796454699
N         4.23781659241195    0.15767583849945   -2.87711642924930
C         3.38783762407348    1.30336237011097   -3.23029397815738
C         3.89752904095024    2.53941325780914   -2.45377138968079
C         4.59275334903413    1.88285415789799   -1.25608477532566
C         5.24999041613258    0.62595807106510   -1.90787169625188
N         1.21516044513063   -0.01686533624008   -0.30267132926697
H         0.07790510810031    2.93238754583066    0.74535374879696
H        -0.63685351282260    1.38024117344512    1.04801340793819
H        -0.64341752047838    1.95554938343267   -0.59191956978713
H         3.07947981986185    0.76016337247013   -1.16074167234723
H         3.53008024710273    0.38838225186483    1.74302304953396
H         4.99080492445356    0.09945474194287    0.83975951071008
H         1.34309162056019   -1.06059030476755   -2.38219735996210
H         2.21609094719971   -2.60359798440881   -2.11671577215697
H         3.28507049283636   -1.52262277581908   -3.82384602100026
H         4.21369915728210   -1.95525797870497   -2.43034802129926
H         2.30600570176378    1.15446369707004   -3.13677194696984
H         3.49045269886163    1.40985250538458   -4.31586613306474
H         3.14408512331834    3.24164129336203   -2.08535054028859
H         4.65780310949529    3.05813790015656   -3.05237477462708
H         5.30513521875553    2.56852718071203   -0.78921947355361
H         5.51083614740437   -0.07866932924331   -1.11400811470069
H         6.07731425732143    1.02248828430513   -2.50796902303427
H         0.29167644153147   -0.44245075585727   -0.38480262811766
