33
 energy: -44.347208180739 gnorm: 0.118423983276 xtb: 6.4.1 (79825abcba525fcdf90b791dcacef51065a7a4e7)
C        -0.05350745577742    1.84070088251089    0.63113450071542
C         1.25582539714118    1.36275065607880    0.05838258281301
N         2.34835496539298    2.05246687901656    0.18825523848838
C         3.49159933964503    1.21803902115230   -0.27461041553065
C         3.75014417171339    0.00689375390166    0.66678328856745
N         3.29979050013007   -1.21843692670494   -0.10581443819022
C         2.25808616112918   -0.86569362766823   -0.80021112531140
C         2.15616156874411   -1.31112368419548   -2.26278695638282
C         3.56995596181480   -1.07846999439444   -2.94012738279569
N         4.26069491807041    0.23784133314423   -2.82176250952219
C         3.54526093278139    1.44518391549945   -3.25796700517534
C         4.09259354176167    2.58779797402081   -2.37170824158903
C         4.59539733389810    1.86854755969156   -1.11523416877790
C         5.19412941455869    0.56137657796485   -1.72301574827096
N         1.26756744141548    0.07205437543671   -0.46835256942887
H        -0.65415438607183    2.46507765479615   -0.02145864567280
H         0.25571294723508    2.44912977477707    1.48321112216359
H        -0.65481757915677    0.95860829417601    0.91511970308789
H         3.07849595046396    0.71270288304940   -1.11417963220586
H         3.10767770996382    0.18806898263135    1.53859934333964
H         4.76856090165374   -0.09790243179219    1.05534472958066
H         1.38900412275267   -0.84063151505034   -2.89011691779833
H         1.92527466885816   -2.38072931895570   -2.22440201090813
H         3.34295548510666   -1.22978744509096   -4.00680753072189
H         4.31556956254647   -1.81959597175409   -2.62495552589677
H         2.46788860999668    1.32129463875560   -3.09922878973513
H         3.83804782478352    1.55146160712802   -4.30835635901841
H         3.27056040368165    3.23369940969654   -2.04982514542883
H         4.88536464716968    3.23004002601091   -2.77724127991104
H         5.35583878152170    2.49367341946304   -0.63926663596063
H         5.25715502089553   -0.27986860181535   -1.02796612537913
H         6.16851822067664    0.76117378664651   -2.18395531141752
H         0.34137196367013   -0.16309156936385   -0.82550733243328
