33
 energy: -44.346781571739 gnorm: 0.128584901560 xtb: 6.4.1 (79825abcba525fcdf90b791dcacef51065a7a4e7)
C        -0.12479766352883    1.70191222581802    0.55955338400910
C         1.21428918964789    1.22410293761680    0.06017539078752
N         2.30820454029809    1.75024584214250    0.52139018014096
C         3.37009649570247    0.92891373322766   -0.12306402332585
C         3.31309450190825   -0.47218845534080    0.55043716171636
N         3.03744184059148   -1.31804006133330   -0.67826607032237
C         2.07853122631652   -0.76686561268300   -1.36270721931585
C         2.11773624913661   -0.90914674659664   -2.88787725836186
C         3.58330640261365   -0.58032774616065   -3.39355952998549
N         4.31378479507845    0.55331954498200   -2.75712321061233
C         3.90361792342163    1.96447245043587   -2.74274035555220
C         4.61660244399297    2.55866304519370   -1.50613812517618
C         4.77418371178752    1.38008949770680   -0.53918804673520
C         5.21766928556774    0.33359080821559   -1.60911120526700
N         1.15998915070658    0.14837385284240   -0.82489134187090
H        -0.81534483971114    1.99355219536534   -0.22440556327277
H         0.00360245017994    2.50915367857634    1.28323299818086
H        -0.58426170112620    0.84855239620313    1.08962752433687
H         2.93229722704660    0.76161839104276   -1.07765271208871
H         2.54795424085216   -0.61956495612052    1.32405942218124
H         4.25404817946121   -0.83651931336677    0.97588290489615
H         1.48224095689390   -0.05858302415293   -3.16378197173769
H         1.76257577353411   -1.85423321158887   -3.31156461018805
H         3.52677692953695   -0.36155465829101   -4.47113805333208
H         4.23931096330766   -1.44286883127206   -3.21971607504538
H         2.82113553915190    2.13564576609099   -2.75719979144995
H         4.15419194695698    2.47058177689018   -3.68157096417033
H         4.08986110857409    3.34268112423945   -0.95441800580699
H         5.64565127392364    2.90380646371785   -1.67152389410322
H         5.42432390915228    1.52158001087966    0.32850820962674
H         5.01639146418469   -0.70066342595389   -1.31831045641671
H         6.26446988638982    0.46679918354414   -1.90623370438580
H         0.31724373365500    0.32754239241343   -1.37112389586593
