33
 energy: -44.344928244929 gnorm: 0.125679121788 xtb: 6.4.1 (79825abcba525fcdf90b791dcacef51065a7a4e7)
C         0.04883169516756    2.08105432248212    0.31248839481718
C         1.16194301988601    1.09990072458815    0.04951601507578
N         2.31776903369798    1.50990046450487    0.47632119620427
C         3.45152030186465    0.73832735892744   -0.10402797434326
C         3.47070983729921   -0.68841004911818    0.51564333179731
N         2.92584327953829   -1.49020575572109   -0.65114929011333
C         1.99935704843937   -0.87598231858001   -1.32651240487213
C         2.08050676466923   -0.83131489747470   -2.85600387016421
C         3.58632423280918   -0.56181595826458   -3.27027000931152
N         4.37128857153615    0.58708342972094   -2.73392383129967
C         3.95269187285159    1.99556249780089   -2.70635999922177
C         4.24359409770103    2.59789817037518   -1.31238650720967
C         4.76953437614362    1.42438650104217   -0.47864967832281
C         5.29320603262669    0.45747346355456   -1.58654032975552
N         1.04883148078457    0.04010224189974   -0.84910382378354
H        -0.89736343414473    1.58874521269619    0.50958588037897
H        -0.02312738344753    2.88059161579170   -0.42737614418868
H         0.19513178696576    2.59621919525555    1.27867172327244
H         3.13759924546677    0.57524443533019   -1.10690035974885
H         2.79414307021994   -0.80764761951239    1.37220077844740
H         4.50927888021534   -1.02015139723939    0.61790228187063
H         1.33700750503616   -0.06867798409362   -3.11873966931841
H         1.81526488856486   -1.75187509312703   -3.38614916668878
H         3.65537206570367   -0.54019465106285   -4.36890444875812
H         4.18734382891449   -1.44919110776889   -3.03387745318992
H         2.88144357380770    2.04107515278448   -2.93358933738275
H         4.45159442345058    2.52931544286314   -3.52277958520244
H         3.37519323894145    3.06823525568667   -0.84206869335057
H         5.04065192788597    3.33372225770210   -1.48173718775800
H         5.53621924773812    1.67750472934184    0.25872681809448
H         5.22476763126682   -0.59290168381781   -1.29194248428963
H         6.27151368760902    0.80439227529080   -1.93921470824368
H         0.15395148567284    0.02671258125441   -1.33869722712187
