33
 energy: -44.345845084392 gnorm: 0.145249604688 xtb: 6.4.1 (79825abcba525fcdf90b791dcacef51065a7a4e7)
C        -0.11723362383202    1.91289468095045    0.46819250735753
C         1.21973650678776    1.33829030156964    0.07681749706786
N         2.25440749461224    2.12227438247796    0.10877302555881
C         3.41234587902107    1.33333188302643   -0.39547949578509
C         3.83476360750681    0.30701459182420    0.69455559243249
N         3.42986075418875   -0.99713891387956    0.03395111671181
C         2.30899604778490   -0.84571309749113   -0.60830667450523
C         2.30804297339067   -1.59917598452819   -1.94255454836346
C         3.53813573239503   -1.16211244570101   -2.84120889237124
N         4.18222807153061    0.18277062806832   -2.85672084647332
C         3.43308734407358    1.37886509075320   -3.26652868038380
C         4.09626469008711    2.51546116714880   -2.45477771087019
C         4.62333255007646    1.85535137579439   -1.17598357127846
C         5.24036169133408    0.63602512041282   -1.93036613159182
N         1.22927731583612   -0.00581064450582   -0.29302886078243
H         0.11114611141466    2.93662218750211    0.74446340114106
H        -0.65491717415684    1.38937483194976    1.26107390151667
H        -0.68611411715426    1.80301851717360   -0.47234511469482
H         3.00989675348706    0.73457421365698   -1.17677294125957
H         3.28776694916634    0.37413981651735    1.64426065939685
H         4.89180333001705    0.14212700704366    0.92825194678726
H         1.39881854637982   -1.31407799170233   -2.48612275096568
H         2.32557285169343   -2.68973954120415   -1.84662642618759
H         3.14892621604566   -1.32538141482232   -3.85811199361056
H         4.32195223864156   -1.92277012189439   -2.73363457014055
H         2.36934539624356    1.19519434533425   -3.07680356316816
H         3.76327390334463    1.48277873114842   -4.30600725057235
H         3.23503407574770    3.15202378763945   -2.23205426390787
H         4.80684311335433    3.07397957912380   -3.07811823876928
H         5.37546402725298    2.48724390790400   -0.69576622274325
H         5.47086799687437   -0.17321879906481   -1.23269086477222
H         6.13329986538113    0.96033248052851   -2.47745287156146
H         0.30572523735003   -0.40953806341163   -0.45034044224692
