33
 energy: -44.344856744350 gnorm: 0.132930285018 xtb: 6.4.1 (79825abcba525fcdf90b791dcacef51065a7a4e7)
C        -0.07044721412747    1.87019322943456    0.60172735891123
C         1.23087744620641    1.30504241440166    0.09379784888690
N         2.30207078984983    2.03878081069744    0.11300786306601
C         3.44040992089208    1.25370095127049   -0.43958222957397
C         3.80426781153571    0.25267889976199    0.69421788429647
N         3.38567337920508   -1.04887783838965    0.03703471645074
C         2.30733530953667   -0.89699948506007   -0.67421946194505
C         2.21656729952214   -1.52602494008701   -2.06849804184018
C         3.55489024513647   -1.12082124818516   -2.81444310134269
N         4.22911995311245    0.20707686693699   -2.89129975829088
C         3.49090294916505    1.41411612664536   -3.28865115900047
C         4.13777849587208    2.59404956460306   -2.52713715576992
C         4.58091237800762    1.89476909050217   -1.23737008586736
C         5.20643105081196    0.60603119817487   -1.85741489307972
N         1.26331680333843   -0.01210843513702   -0.36177434325872
H        -0.85068437030816    2.16461631200656   -0.09184738785261
H         0.22570150561651    2.75212036260049    1.17298738054852
H        -0.50686173627838    1.14232657574806    1.30887748030197
H         2.91668264948144    0.67229344191609   -1.15970065398534
H         3.11536641171761    0.36003799843522    1.54247476782343
H         4.79404105170822    0.12037147573743    1.14363812366605
H         1.32610095863965   -1.10311929736428   -2.54980545481001
H         2.17943737649607   -2.62002267747242   -2.09357172971057
H         3.31441626180435   -1.29283662724893   -3.87501638828068
H         4.32116804969347   -1.86292168067204   -2.55628437710379
H         2.44398087495803    1.22376087225968   -3.02597922873424
H         3.66197346970421    1.50412792733686   -4.36706186824546
H         3.32596580437837    3.30229546783271   -2.33770704296359
H         5.01212438346764    3.00682251554350   -3.04728683146468
H         5.22401699253669    2.62390270979119   -0.73699097684008
H         5.30471007064035   -0.22595732611102   -1.15534937807193
H         6.18094264219188    0.87217400728864   -2.28322343219509
H         0.32377346454178   -0.26227425972895   -0.67058914261963
