33
 energy: -44.339103678048 gnorm: 0.128233117467 xtb: 6.4.1 (79825abcba525fcdf90b791dcacef51065a7a4e7)
C        -0.07836893080545    1.88019479634440    0.26151924200695
C         1.30612733474942    1.32602272429315    0.04496183556118
N         2.33780342867998    2.11365607292473    0.00656432957635
C         3.51190196320819    1.25142061419193   -0.30257124292353
C         3.84993953978628    0.25712512928095    0.84505564299471
N         3.48151690090319   -1.06267801148054    0.19425200768971
C         2.39353279905461   -0.90260327376713   -0.50031920832922
C         2.24982019061141   -1.52605374776334   -1.89264847029623
C         3.38443736587498   -1.11975787483680   -2.92187140824620
N         4.11104230822923    0.18241770820500   -2.90808663633125
C         3.45655875727865    1.43522217191384   -3.31049002885918
C         3.96325719811013    2.55681220780935   -2.37460171482113
C         4.61574638171783    1.84217914223440   -1.18615005421815
C         5.14157452926269    0.57043502744817   -1.92286314401628
N         1.31648290350122   -0.02708849394234   -0.29039986673822
H         0.07357047933751    2.95050525139792    0.35012432001718
H        -0.49476819333163    1.40109883160912    1.14972881893977
H        -0.67260652915353    1.52814099840750   -0.60059942568299
H         3.06025322007640    0.66095700520649   -1.06300640107188
H         3.37666042373950    0.48652327216501    1.80891985132827
H         4.88260079416036    0.16308408730935    1.19705263529309
H         1.35524663975506   -1.07187563867239   -2.33637892418858
H         2.22642859399491   -2.62061013538855   -1.90805961996201
H         3.03833475588152   -1.33904734799658   -3.94380967111227
H         4.13385410803117   -1.89147196673395   -2.70421903854170
H         2.36174754148902    1.38404743855909   -3.31734813806629
H         3.82199596901232    1.72067486668930   -4.30311750332275
H         3.13788256063830    3.10202643926651   -1.90766058456040
H         4.65373951096816    3.23420221757792   -2.89401953317004
H         5.51987969150924    2.37591222214679   -0.88074773284800
H         5.49982089155905   -0.16311929455938   -1.19600879447177
H         5.96683270161437    0.85541612575988   -2.58585067566246
H         0.45442340788959   -0.24638811351875   -0.78985186777443
