33
 energy: -44.346765313897 gnorm: 0.122783218115 xtb: 6.4.1 (79825abcba525fcdf90b791dcacef51065a7a4e7)
C        -0.08847715987950    1.86600145241639    0.49024563772209
C         1.27655006855055    1.36936324455234    0.08914108309679
N         2.29824176479164    2.17010988072832    0.05527163873799
C         3.43348465774720    1.32374362686297   -0.40560786522679
C         3.78503334083392    0.27823593755528    0.69132768826630
N         3.39529638040594   -1.05019973421022    0.07122711112906
C         2.31027825813900   -0.90231079487379   -0.63064685776646
C         2.25086869562897   -1.60962439296553   -1.98862424293220
C         3.48828269794658   -1.18936607789870   -2.88524116005880
N         4.16598696467956    0.13631918454466   -2.80108920337097
C         3.56244432401012    1.36620293988534   -3.33299001975619
C         4.08681838913110    2.55426536658072   -2.49386310723071
C         4.60580906288447    1.88939790423929   -1.21423040479248
C         5.18394855669585    0.57367448231228   -1.82349317953666
N         1.31511743807928    0.03276731959402   -0.30520467475939
H         0.11814157720982    2.92711369255959    0.57884829130133
H        -0.46013592069571    1.42989661014817    1.41950333509398
H        -0.77808860415861    1.52698177631415   -0.30336038225216
H         2.91355039816263    0.73296829107848   -1.12083395737223
H         3.12135735611713    0.40882228108762    1.55627407373714
H         4.85057093030392    0.19390812499731    0.92934731347540
H         1.32101454109699   -1.26180611687644   -2.45534687120720
H         2.30451208460059   -2.70152266161000   -1.92764124890216
H         3.03526345365648   -1.16605427298522   -3.88846737824381
H         4.21560290889487   -1.98539795365272   -2.68059703884537
H         2.47261326749769    1.34849608653912   -3.21795859660070
H         3.80924149736919    1.55192965688451   -4.38414825904253
H         3.26293407550086    3.23969900540161   -2.27493106846313
H         4.84708954753563    3.14133110227912   -3.02561447051420
H         5.31547216121445    2.52423415006288   -0.67668053544303
H         5.55479924625890   -0.01853913587162   -0.98295023169438
H         6.06404265598904    0.86594149503808   -2.40815728724762
H         0.37893580037888   -0.36309957828832   -0.39206402754969
