33
 energy: -44.340961295583 gnorm: 0.131979028766 xtb: 6.4.1 (79825abcba525fcdf90b791dcacef51065a7a4e7)
C        -0.04619325000061    1.85750752197745    0.58186008745195
C         1.21191176622767    1.24420880360671    0.02340671650028
N         2.37974159514475    1.66892971566976    0.40021155747004
C         3.38990218125562    0.73453236878820   -0.16899786698514
C         3.26258813327236   -0.71593652960553    0.37860739173747
N         2.72043623085732   -1.56276477876013   -0.75722454840487
C         1.86671250451138   -0.80408072224206   -1.37957240126530
C         2.05942245967400   -0.81944428647204   -2.89962222412250
C         3.49347423752038   -0.35129978622448   -3.38549111653934
N         4.47573966677108    0.54745313128853   -2.71377402282460
C         4.18929729194688    1.98870513432822   -2.69054299932173
C         4.53173191853655    2.58630454879631   -1.30627137414432
C         4.76961453627735    1.34218661775780   -0.44346064605365
C         5.33147299369430    0.36485738934673   -1.52314447846892
N         1.02319735212139    0.20243896416249   -0.88355920522550
H        -0.16993165352665    2.93344482532371    0.52228968962229
H        -0.07641698373290    1.59759846663420    1.64175223025022
H        -0.98236492347529    1.36514319867794    0.26331846459928
H         2.95619986978537    0.59035341925478   -1.12921150523372
H         2.61120902748652   -0.85035563891767    1.25227072408386
H         4.20661117587135   -1.23046899524048    0.58648166945439
H         1.32725403237822   -0.13858712863801   -3.35106351728755
H         1.86635474396034   -1.85327620230157   -3.20417895811570
H         3.39563255816348    0.04789229824844   -4.40691434050364
H         4.13865136936285   -1.23909231907026   -3.39605249536279
H         3.13454627017067    2.14974394488046   -2.94123060885629
H         4.85990459308915    2.45248655625411   -3.42234184096709
H         3.72731343739039    3.20159324518560   -0.89291124006349
H         5.46702721246013    3.16130866218939   -1.30296848620979
H         5.43186026136111    1.59322968232090    0.38960994768678
H         5.49364372460648   -0.68293622686287   -1.25745886755753
H         6.30171795110580    0.77733497462468   -1.82365190460370
H         0.17789152721820    0.31187890181637   -1.44406984420756
