33
 energy: -44.344052612873 gnorm: 0.123310325537 xtb: 6.4.1 (79825abcba525fcdf90b791dcacef51065a7a4e7)
C        -0.05357728115685    1.96987247240318    0.48676421305017
C         1.27674441712571    1.35358035499846    0.13853742749945
N         2.36103493816422    2.06804575029320    0.13150251956908
C         3.47606496632196    1.24445000802168   -0.41248300769193
C         3.88296037634952    0.19907596426192    0.66527839226736
N         3.34395074400898   -1.09057542105363    0.07584741952540
C         2.25586137216245   -0.87290173206559   -0.60271149753827
C         2.31397103087175   -1.50561114990690   -1.99706678342859
C         3.65320707015332   -1.15058299901140   -2.76656934907107
N         4.29743037853504    0.17752931772834   -2.97846565578340
C         3.39236708035270    1.29835557897685   -3.26899133890088
C         3.87656944987066    2.52888357135367   -2.46777763981425
C         4.57384280185629    1.90214049397384   -1.25539861478676
C         5.22450129768989    0.65472556188920   -1.93154507230917
N         1.23733428684911    0.07474304405119   -0.41509300214846
H         0.09457917540983    2.79224876015309    1.17831884768900
H        -0.74634183687993    1.23998261292836    0.91005559573211
H        -0.54954258078665    2.50495392832941   -0.34270251040593
H         3.01299523536114    0.63496466118252   -1.15071706767218
H         3.33533772783421    0.43058533817218    1.58840552128735
H         4.96248471583493    0.14247201512669    0.84008704243357
H         1.46260052760415   -1.08383648489842   -2.54543774477148
H         2.12268498742303   -2.58212466265020   -2.05508978646408
H         3.42465048777706   -1.58543569000376   -3.75191078571452
H         4.34337102871369   -1.77414126323722   -2.18399793208023
H         2.39503310362790    0.95539864948511   -2.97069119013848
H         3.33058443186187    1.44151440919477   -4.35343836732218
H         2.97639560949550    3.12980122201522   -2.30928188069062
H         4.70621543750627    3.07075764872067   -2.94051217978019
H         5.29524075054385    2.58214495399811   -0.79412042944070
H         5.48886719522502   -0.08496260684737   -1.17145840590929
H         6.17732028369335    0.91173383808237   -2.40893429851412
H         0.35409968596629   -0.43115477961097   -0.34686374217863
