33
 energy: -44.340463681490 gnorm: 0.123826457991 xtb: 6.4.1 (79825abcba525fcdf90b791dcacef51065a7a4e7)
C         0.02785444738293    1.99869188929689    0.70685740782086
C         1.17891540540054    1.29533879370299    0.03515301032242
N         2.23541231891090    2.04575872124004   -0.04779546427617
C         3.41757465744888    1.23544145428909   -0.45202349891412
C         3.68059979341397    0.25239009145615    0.72456827683340
N         3.28865886829607   -1.05525748668464    0.06305404146612
C         2.23490169352860   -0.84706023641760   -0.67043914602198
C         2.32356371952677   -1.51797068391212   -2.04519106101524
C         3.68415848423895   -1.20684930817955   -2.79600244452752
N         4.31094772661849    0.13967065229481   -2.92951381034209
C         3.57474764719168    1.33821922331281   -3.35529193960737
C         3.88345456654790    2.52402929801904   -2.41234497926999
C         4.58993983497735    1.80425245126668   -1.25836934140056
C         5.29848815699526    0.58285642649451   -1.92374558710715
N         1.12782450342781   -0.03613415477572   -0.37479113606842
H         0.36000835214575    3.02865359770159    0.63368924782064
H         0.03375161368783    1.80159022450769    1.78061422203835
H        -0.99551840964964    1.82298125754368    0.32983942902697
H         3.00678254802807    0.69957809752602   -1.27360477804804
H         2.97439743695095    0.53019464345673    1.51813851173243
H         4.70111907202706    0.23927188399655    1.12143499038066
H         1.48140575085518   -1.02529424318357   -2.54666508672973
H         2.19554674990891   -2.60249334621951   -1.96606697858282
H         3.58840669942043   -1.47688817998161   -3.85908443679147
H         4.47717090183518   -1.80064762746157   -2.32369374014038
H         2.48204561334381    1.29401045157381   -3.42826687067307
H         3.99387043500330    1.47161848758623   -4.35872486234213
H         3.00163548568267    3.12803022840602   -2.17972112721239
H         4.60387735398906    3.20371365144517   -2.88609397660687
H         5.20064448729718    2.54997393278798   -0.74209622377398
H         5.54206986689004   -0.12193802640344   -1.12456326473458
H         6.25660592226401    0.83824369476333   -2.39129819071977
H         0.18727870454195   -0.32211868507836   -0.64733039060391
