33
 energy: -44.344609864371 gnorm: 0.123268521499 xtb: 6.4.1 (79825abcba525fcdf90b791dcacef51065a7a4e7)
C        -0.04137985072940    1.90203513273613    0.54822101803898
C         1.17796779292478    1.15222283723419    0.07725760018283
N         2.33955919883589    1.51294501469212    0.53198954586128
C         3.41246914738336    0.72167277391440   -0.13154240377479
C         3.34486808976715   -0.70837506183539    0.47700807326250
N         2.78050255237604   -1.48661091634471   -0.69644897549179
C         1.92795799327520   -0.77889229144959   -1.37767187452371
C         2.08270599580309   -0.73331696320340   -2.90145025058910
C         3.61173497147899   -0.55215455355584   -3.27692717989974
N         4.42988005458469    0.58811266843253   -2.77270965158933
C         4.10654208276419    2.02172026318906   -2.77695940152766
C         4.41905647395927    2.66140483322823   -1.40446792112408
C         4.70724766968384    1.44321975084643   -0.52025593030256
C         5.28729835112656    0.45167674108330   -1.57711835575390
N         0.99809408040097    0.13733896008296   -0.86143342486715
H        -0.73965107622064    1.16374411357070    0.92748949504328
H        -0.51317358240712    2.37743177785906   -0.31389628343381
H         0.20551900526863    2.57449563647221    1.38914111946834
H         3.06381353589611    0.67867779487963   -1.13527851785648
H         2.75660661260029   -0.69209371850717    1.40401087733632
H         4.27906895167644   -1.26913561852890    0.58632971954832
H         1.46547880519608    0.03314283733014   -3.38622470559775
H         1.88033799655640   -1.71966991348529   -3.33155886380239
H         3.75437684452585   -0.70498505091365   -4.35791230724671
H         4.18603257995065   -1.41404647633412   -2.91379466760127
H         3.10474971477633    2.23018722842303   -3.16968203090924
H         4.74032605680332    2.41344921126260   -3.58020482348273
H         3.72572393863465    3.39650669072896   -0.98559906174457
H         5.30554694086869    3.28062775044521   -1.59450884680590
H         5.31312260390848    1.59696133330748    0.37689384511937
H         5.22081268646084   -0.56711017830800   -1.18671789096856
H         6.33166394700415    0.64958545651210   -1.84535404966560
H         0.03607173460390    0.06321743774635   -1.19265871939967
