33
 energy: -44.336105868752 gnorm: 0.132295915878 xtb: 6.4.1 (79825abcba525fcdf90b791dcacef51065a7a4e7)
C        -0.03700763519129    1.71529340635968    0.67213967419553
C         1.23086769484215    1.07204040449639    0.17258843195655
N         2.37193795888736    1.54401984824509    0.57432255328236
C         3.41352024198165    0.75443115666323   -0.13924469950097
C         3.19721519770582   -0.70359435004667    0.35806220776129
N         2.70269327202918   -1.45819705628422   -0.86143923996593
C         1.87461549916762   -0.68175073903582   -1.49640448494091
C         2.04107034861652   -0.67459840712452   -3.01961367510792
C         3.57386581682097   -0.41590787716346   -3.32840101197851
N         4.46829377147973    0.59022096807471   -2.68691101678412
C         4.29343876930258    2.04654141951893   -2.77830420908764
C         4.52655853695873    2.59741899924078   -1.35254703157295
C         4.77603588225983    1.38079170306409   -0.45452754841691
C         5.30074942711505    0.33940714648039   -1.49220207636154
N         0.97226697284869    0.20489084331072   -0.88791240058606
H        -0.83654841078300    1.73198173557350   -0.06063379582417
H         0.07280398221560    2.71961728999135    1.08579712178263
H        -0.49433811387834    1.28424669801470    1.58063093068530
H         3.11149998380608    0.72692888249429   -1.15852036495397
H         2.56566273336572   -0.66583965917945    1.25548458374500
H         4.15551476690537   -1.14218508395906    0.65544240460516
H         1.40305252265692    0.02565059840072   -3.57280522253784
H         1.78651126584867   -1.61630507349984   -3.51683253753608
H         3.69454905655533   -0.13436135340218   -4.38594525573596
H         3.97165558556085   -1.42478592581623   -3.15967331839717
H         3.26688542922642    2.15022293992581   -3.14805530817044
H         5.04813565056845    2.40321813079093   -3.48791765550582
H         3.62554389909562    3.04013389973489   -0.91813707246325
H         5.41234820478217    3.24385453488010   -1.29854992349512
H         5.50625810417813    1.73228285730809    0.27952156820673
H         5.01064480122615   -0.67698617075330   -1.21373558392200
H         6.38244256932616    0.41224348551079   -1.65484449998075
H         0.08501623763276    0.28265848753770   -1.38533529076054
