33
 energy: -44.346812848021 gnorm: 0.121854562142 xtb: 6.4.1 (79825abcba525fcdf90b791dcacef51065a7a4e7)
C        -0.04763221367700    1.82745977527533    0.64411562972866
C         1.22797992115603    1.20646265915577    0.13616880291135
N         2.39254241160813    1.58155611624399    0.57124965548798
C         3.41324964208452    0.77633480878220   -0.15490292885880
C         3.40575663009512   -0.61754675369176    0.53573334273998
N         2.80989960048126   -1.37027258938427   -0.63879599836278
C         1.90754570442977   -0.71687656714318   -1.31005870028594
C         2.11233696138276   -0.85506017562964   -2.82230551923331
C         3.60837916761455   -0.61215149314043   -3.28553920389209
N         4.46910431376398    0.48264109509464   -2.75225930509796
C         4.09375409384706    1.89718445059728   -2.88633225960352
C         4.17660506674689    2.55228323047935   -1.48827082661720
C         4.72417635799495    1.44789268049729   -0.57758585764677
C         5.37063370191259    0.44324877131492   -1.58225398314618
N         1.00549410864994    0.26244091487024   -0.86523407093336
H        -0.04277407752520    2.82199206637994    0.21123823852906
H         0.02927579981018    2.01204262321928    1.71735925148201
H        -0.97094580473482    1.28387288601248    0.37520282081266
H         3.06111623821923    0.62872798564650   -1.14742989847801
H         2.81303096869693   -0.65717189559888    1.45918176592968
H         4.41132710244530   -1.04196073984378    0.62425267012797
H         1.44951521242861   -0.19178090925354   -3.39165976078267
H         1.92654160344946   -1.85542943008024   -3.22675552851156
H         3.46475421082002   -0.41246137694852   -4.35872532371662
H         4.21988084058224   -1.52096787490070   -3.21728133817925
H         3.14631538849002    2.00164342744841   -3.42737358314377
H         4.87050823833124    2.40896236308232   -3.46518739752764
H         3.22324641025932    2.87717393356460   -1.06155174325082
H         4.81378263618076    3.44420422165101   -1.55071773647715
H         5.39672604786824    1.78986651942871    0.21382392416637
H         5.37002894882598   -0.61890137903301   -1.32419130062140
H         6.40072462925203    0.68855870443238   -1.86607340522120
H         0.21280909495477    0.41281187819321   -1.48951785560533
