33
 energy: -44.345162425597 gnorm: 0.124583730892 xtb: 6.4.1 (79825abcba525fcdf90b791dcacef51065a7a4e7)
C        -0.04690045882376    1.93433224392798    0.30881656391428
C         1.33564231738686    1.34791481352630    0.18422210047815
N         2.37514713212982    2.12561094776434    0.15567921819804
C         3.48490547484749    1.28918584140405   -0.37943912300525
C         3.88937444883928    0.22005589033257    0.67569423823804
N         3.41822730131788   -1.02401591823086   -0.05332335494895
C         2.24227305553127   -0.90977900003595   -0.59723885379623
C         2.25704594452584   -1.51356158563592   -2.00548348574083
C         3.54470205852843   -1.17082281483044   -2.86350692167517
N         4.17332768669352    0.18143447769250   -2.86951313055745
C         3.40498607566248    1.36072686305886   -3.29226233368366
C         3.88817597561803    2.53050133732765   -2.40414653792671
C         4.61932750846696    1.87014296513201   -1.23017712869703
C         5.18755245709373    0.56204999847582   -1.86467513913612
N         1.26805305350151   -0.00424430694699   -0.14831675218912
H         0.17031532957656    2.90334009035383    0.74509859651162
H        -0.62690829711138    1.41949346176186    1.07717160871859
H        -0.61027115941038    2.07631807402564   -0.63073772856152
H         3.01580976023874    0.74374398303042   -1.16259803557189
H         3.24622524512956    0.33173435378352    1.55860866084212
H         4.91122527060082    0.31906373793169    1.05668401995644
H         1.35395119732852   -1.30605126958569   -2.59267650930259
H         2.34000561052240   -2.60073585967811   -1.90544267352375
H         3.37474301204784   -1.50444337451059   -3.89890247773529
H         4.41649650509676   -1.71981033752144   -2.48518457924315
H         2.32615450547592    1.18250673617186   -3.21717889829739
H         3.64398012309088    1.54737591138743   -4.34505902905121
H         3.04319162152170    3.17063533757163   -2.13439521562997
H         4.61575862004720    3.06585799431318   -3.02819354912058
H         5.34449675771318    2.57492944492460   -0.81423937958002
H         5.36014856768498   -0.23656450650645   -1.13859999817901
H         6.15164133481456    0.79765769707265   -2.33033531139007
H         0.32356221960642   -0.33788344587023   -0.34148298053319
