33
 energy: -44.334302878328 gnorm: 0.131200788039 xtb: 6.4.1 (79825abcba525fcdf90b791dcacef51065a7a4e7)
C         0.00101155612746    1.82062685288160    0.75162252477810
C         1.26604234760367    1.29280505509943    0.12557544316852
N         2.28567645103718    2.09225946541302    0.21168681415526
C         3.41579822567015    1.35820538043334   -0.42196256770841
C         3.80151090907884    0.29866172553475    0.64973392421842
N         3.29326679108181   -0.95574384616114   -0.03533214546943
C         2.22293713033679   -0.82799570077893   -0.76323141697017
C         2.26021892004476   -1.51861614561922   -2.13055656849464
C         3.69449577919344   -1.28885058013258   -2.76442567276233
N         4.20498700557712    0.11228241008674   -2.75884985769032
C         3.55254830642903    1.27463893992547   -3.37775799455244
C         4.04537226091078    2.52032982123841   -2.60576496551510
C         4.54511846612498    1.94267701905965   -1.27706978890597
C         5.18977905422149    0.61191584301716   -1.77713172314921
N         1.15734515214769    0.03876937897999   -0.47364415575972
H         0.06633972528606    2.84034590224199    1.11549914637246
H        -0.26714381992527    1.26371717349565    1.65150131598416
H        -0.86302307920785    1.77898236151955    0.06458637110704
H         2.82387785406674    0.87326736823620   -1.16044810451529
H         3.24466008926993    0.54393856136928    1.56374009819958
H         4.86084658968246    0.23083958793344    0.91870035459874
H         1.53497331665038   -0.97850957305766   -2.75163629001977
H         2.01139138601232   -2.56030843594858   -1.90295954951441
H         3.51319684716351   -1.68674096450387   -3.77489420563902
H         4.36951255262471   -1.96326746296653   -2.22215740644703
H         2.48695173089683    1.06751239019602   -3.22649655739205
H         3.65724995233017    1.50554750971271   -4.44361712845144
H         3.22676645901738    3.22182601743232   -2.42049894991269
H         4.91749289950510    3.00892265774563   -3.05974795378805
H         5.23893566830340    2.60580264872878   -0.75316071736398
H         5.51021530799945   -0.06802677684245   -0.98355860730719
H         6.17236640380747    0.78526313063060   -2.23132393212432
H         0.35983915752994    0.03644607146041   -1.10978092567730
