33
 energy: -44.338190183988 gnorm: 0.133791126229 xtb: 6.4.1 (79825abcba525fcdf90b791dcacef51065a7a4e7)
C        -0.06494780368795    1.81721234787043    0.56719545474982
C         1.29362498019442    1.32415677816025    0.14056925463855
N         2.35021351841761    2.07542334131940    0.21415899452380
C         3.49360754225448    1.33908416889532   -0.39245199846653
C         3.87474238956841    0.30761056859585    0.70788378966109
N         3.37764621275321   -0.97061808954660    0.05966481538947
C         2.29090113546814   -0.83114890139264   -0.64126029610122
C         2.13201119772671   -1.40403116624079   -2.05352249442698
C         3.54066345430156   -1.26596912356250   -2.76652323913001
N         4.09680490863783    0.11764376647816   -2.77784129798893
C         3.58775939959012    1.32495583646297   -3.44347369015087
C         3.93459539367169    2.48179379374890   -2.47805917042721
C         4.63063911602748    1.94318896701288   -1.22335287465980
C         5.15529718193074    0.62925910738440   -1.88281990272672
N         1.21432651407374    0.01528835830605   -0.33278042512527
H         0.01167010397680    2.80873321295375    1.00022776440799
H        -0.35631091765006    1.03015607791743    1.26539851537735
H        -0.72707686369286    1.72954932555292   -0.31269607356484
H         3.06149731401339    0.82163665921435   -1.21490218822026
H         3.28847164537523    0.50327230416232    1.61543761774196
H         4.93584251411656    0.12113093372951    0.90391119544010
H         1.31911688152983   -0.87657656197813   -2.56775083058402
H         1.86149891457425   -2.46500297114078   -2.05407486818116
H         3.59385351880886   -1.68042086565324   -3.78516610301207
H         4.31245184158776   -1.81643063763505   -2.21346315297952
H         2.57665013249609    1.22540441937891   -3.85460025657985
H         4.18949547637333    1.39096321839421   -4.35665145062319
H         3.09707008157882    3.15474618342546   -2.27257850817344
H         4.62282246074810    3.15678975807846   -3.00355120377925
H         5.33603537914501    2.58454835947624   -0.68793446880217
H         5.29195421494158   -0.16286741048159   -1.14213097285761
H         6.11658094150968    0.86446780888732   -2.35444278723900
H         0.36881143327074   -0.25568324554850   -0.83514467945038
