33
 energy: -44.344649357912 gnorm: 0.121663248242 xtb: 6.4.1 (79825abcba525fcdf90b791dcacef51065a7a4e7)
C        -0.03201414700943    1.84437529416535    0.57007668674437
C         1.23336581859175    1.17830306864540    0.09468734332435
N         2.34157440705147    1.71410504396476    0.50819211241526
C         3.39601311371793    0.84933500223677   -0.09001684613372
C         3.33288172408104   -0.57620916355473    0.52948186700538
N         2.86522513185816   -1.45001831544371   -0.61895873898080
C         1.96459298187713   -0.83657234991797   -1.32910541301815
C         2.08386950337046   -0.81461229359687   -2.85659206046728
C         3.58869913807682   -0.51837091821770   -3.25591795239530
N         4.51926182380968    0.57516831631081   -2.85338712532642
C         4.02141433682684    1.95789798782209   -2.85505593735507
C         4.42065010771797    2.63761190677315   -1.52494532126289
C         4.70969139764852    1.44168277655854   -0.61112446520519
C         5.24832827674093    0.34991507756160   -1.58810354603767
N         1.07640084122822    0.09450162289634   -0.76799515513789
H        -0.49783827069981    2.65242390511445    0.01639245669673
H         0.22775918427362    2.25017607908843    1.54970982228282
H        -0.77130973693840    1.02964238266210    0.66988204486204
H         3.04061718812488    0.80758965764573   -1.09143911256681
H         2.77778115244545   -0.63507393758498    1.47502358378294
H         4.30604364791638   -1.03600478931563    0.73117154515417
H         1.46802683126506   -0.02866944737335   -3.31097950461174
H         1.76838195546891   -1.76746501171577   -3.29405939360858
H         3.64599176574776   -0.47971582051670   -4.35476100561328
H         4.08015642866453   -1.47703072697549   -3.04619967927748
H         2.93156666662040    1.96495434138093   -2.97107212912656
H         4.45877077344806    2.36969528024648   -3.77128693474343
H         3.67736430656109    3.32847336886142   -1.11656739811390
H         5.32753982112666    3.21637337422348   -1.74404378219399
H         5.43855059252299    1.72173426738670    0.15433883666690
H         5.06173952988682   -0.70076128011552   -1.35141073538704
H         6.33580669096979    0.38236955901053   -1.72284459663734
H         0.15567481681712    0.05882521787618   -1.20581016331283
