33
 energy: -44.344564147889 gnorm: 0.135257874435 xtb: 6.4.1 (79825abcba525fcdf90b791dcacef51065a7a4e7)
C         0.04075380411539    1.96269382709063    0.61325086368919
C         1.27797627045798    1.27658640936757    0.09424133871315
N         2.29569822746884    2.08307428492068    0.09029707482233
C         3.47258683837495    1.31423634087934   -0.40097024831853
C         3.82471917897126    0.26060946938988    0.68798045630894
N         3.34774601175016   -0.98912203779209   -0.02744159171516
C         2.21912194932612   -0.85931536688850   -0.66078231935936
C         2.32680321976126   -1.52369997623577   -2.03734413368632
C         3.67644288986608   -1.22344812497029   -2.81197561819491
N         4.20557784582951    0.17063385421877   -2.83088778003920
C         3.46073160579688    1.34663922333474   -3.30206894681152
C         3.95709684818402    2.54941105477200   -2.46687080858241
C         4.61064367466476    1.90790993413842   -1.23796366414186
C         5.19701010210639    0.58145519262396   -1.81525627335697
N         1.12526194188726   -0.03341614006438   -0.35748461972394
H        -0.00467751377696    2.99609110829872    0.28686617782248
H        -0.07566868007962    1.88680805305335    1.69608265650590
H        -0.90080462036460    1.49578406017778    0.27299831776705
H         2.98868237251734    0.75473163830884   -1.16496399822081
H         3.22892272154021    0.39655455848602    1.60022842966288
H         4.87674555990520    0.07651570796408    0.92981687644818
H         1.51472104895100   -1.18781982442818   -2.69395922553614
H         2.21197721808576   -2.60771235210508   -1.93453107748243
H         3.53895536995818   -1.54867652107726   -3.85483533303912
H         4.44717899604430   -1.92024801582443   -2.45845558802045
H         2.36573490152388    1.38940045978879   -3.32283385689777
H         3.69294832058023    1.49791271656423   -4.36203528063051
H         3.05993362825210    3.12131365839959   -2.21278137519090
H         4.66832814659799    3.13428304548747   -3.06477775679116
H         5.35072300150211    2.49681798508159   -0.68926654497931
H         5.36396980123341   -0.23175715189046   -1.10422195928672
H         6.02866362459605    0.86541818441307   -2.47064561428708
H         0.18518401786501   -0.23870458002872   -0.69630808930176
