33
 energy: -44.342610044229 gnorm: 0.112092711775 xtb: 6.4.1 (79825abcba525fcdf90b791dcacef51065a7a4e7)
C        -0.12528750991716    1.71856493148990    0.66898782941237
C         1.23782890070185    1.35382827626291    0.14010739940899
N         2.26320261944847    2.14800289616408    0.20407314285811
C         3.43138927574690    1.42049059620666   -0.36477474975504
C         3.79950243310169    0.34987151754209    0.70209350455886
N         3.40152068173014   -0.94262895404138    0.01491521768643
C         2.33652620327000   -0.74577729520677   -0.70536159554639
C         2.18009836236879   -1.47303652798720   -2.04496934845511
C         3.58409002342473   -1.26671042535559   -2.75063875644535
N         4.22961587319878    0.07173850376795   -2.87576621226514
C         3.51762717371281    1.26873649245200   -3.34487616828351
C         4.14381017140945    2.45749575942878   -2.57980053955818
C         4.60526236702860    1.86416316422514   -1.24418150820328
C         5.19825342147035    0.56537686994755   -1.87512546457551
N         1.23507110354715    0.07289331825016   -0.41005866161966
H        -0.30133544987486    2.78877716655836    0.68138926210124
H        -0.33088130227686    1.25262926441830    1.63463407901828
H        -0.91847812717429    1.36499005835298   -0.01375827416170
H         2.87682537882818    0.88708963088312   -1.09883045631200
H         3.21067864859631    0.51571986203088    1.61392228294523
H         4.84618231601561    0.25164329571929    1.00860174837478
H         1.48660446746549   -0.86903655014854   -2.64303837233140
H         1.78649600752472   -2.49454736605965   -2.02420519997059
H         3.39297712987392   -1.63957706397794   -3.76881312731837
H         4.39847075584303   -1.76764762752552   -2.21176345291722
H         2.43132200067384    1.37116649366826   -3.24130661320125
H         3.81961750253568    1.40983042393976   -4.38853858800517
H         3.35578789656987    3.19242118377693   -2.39154172258351
H         5.00786442057046    2.89142175537860   -3.09993168107849
H         5.43881710609291    2.42207899037656   -0.80884825492931
H         5.49228423528078   -0.22754128999423   -1.18260375376069
H         6.09379599630425    0.92885807353199   -2.39252536363583
H         0.37605921115505   -0.07724923381842   -0.93944223884136
