33
 energy: -44.346648899703 gnorm: 0.129203356599 xtb: 6.4.1 (79825abcba525fcdf90b791dcacef51065a7a4e7)
C        -0.07027694976975    1.94062517258732    0.42151241827206
C         1.20552416338212    1.22046367121330    0.06862058646798
N         2.33442763320340    1.62922740419279    0.56327744645191
C         3.38956086047769    0.75613940891193   -0.02147327077977
C         3.39108081461083   -0.72184040608651    0.46382434026219
N         3.01939715528728   -1.35012426185235   -0.86593940429684
C         1.98868164233504   -0.76575650108890   -1.40250477383502
C         2.08485068602375   -0.74407943010137   -2.93162421346067
C         3.55379002465311   -0.38256447356100   -3.40412451776842
N         4.39747146790982    0.64247714227234   -2.72493575804312
C         3.87599650364102    2.00923269193834   -2.58408338078426
C         4.55825579296130    2.49380707254100   -1.28396630755557
C         4.78385019759458    1.23429250302890   -0.44040828799883
C         5.23334402227308    0.25498216644922   -1.56978028025997
N         1.10473397371016    0.16972742270247   -0.84202719107552
H         0.03331926772263    3.01972236320628    0.38520832186991
H        -0.36496479234766    1.56209568717754    1.40218160162918
H        -0.83439533777100    1.60329919900400   -0.30142815629709
H         3.02166464645293    0.74013244842729   -1.01911631825372
H         2.55770765453811   -0.91691376891199    1.15163711629860
H         4.35708945517691   -1.08617795513092    0.82881794758858
H         1.38330588242552    0.01396366934546   -3.30127522355671
H         1.89885861538572   -1.76300039714891   -3.28665294071657
H         3.52062632874591   -0.07693145504331   -4.46134793336613
H         4.15674827111068   -1.29761261419137   -3.34355296765923
H         2.78627464534004    2.05583792815417   -2.47632569034081
H         4.17190627074715    2.54083299115650   -3.49522301807686
H         3.95443888488628    3.34808840337503   -0.96436589629895
H         5.54184585486847    2.84589547238400   -1.62160853986490
H         5.44401645120200    1.25301500973631    0.43104373157631
H         5.02516667751736   -0.79286816010618   -1.33862763507489
H         6.27345621082858    0.50013381400931   -1.81449451535051
H         0.23641106521935    0.21107991226593   -1.37587783348629
