33
 energy: -44.336233099242 gnorm: 0.134223431598 xtb: 6.4.1 (79825abcba525fcdf90b791dcacef51065a7a4e7)
C         0.01650348420616    1.97126327012829    0.32660045312537
C         1.33150292733868    1.33529602812276   -0.04374511006164
N         2.41070853384006    2.05744795532713   -0.04658903836790
C         3.57500539380378    1.18426038552917   -0.36199110385144
C         3.87406605385353    0.17963247559222    0.78745480294596
N         3.38550051107728   -1.10830798339610    0.15210132694341
C         2.30810212228885   -0.94235255743148   -0.55742953391288
C         2.19356890874487   -1.58811969234462   -1.94227305750665
C         3.50188602903754   -1.11888721094050   -2.70375816657425
N         4.06242931717473    0.25666614081055   -2.83585755158020
C         3.38986215889539    1.49870387704153   -3.24180327492462
C         3.86098405487560    2.60075556978668   -2.26501225785758
C         4.67067485255226    1.83692027562359   -1.21153403234551
C         5.23304093398927    0.61956708513510   -2.01051471294197
N         1.26900621357549   -0.01294428676484   -0.39278222763564
H        -0.00370882775162    3.02646019680327    0.07629700523614
H        -0.21388871260176    1.77750903116464    1.37598897421599
H        -0.83705174970555    1.59301801306806   -0.26389322220608
H         3.19959912632421    0.58459582609490   -1.15594830973220
H         3.22572781055304    0.41617248972102    1.64147892281842
H         4.96826682967423    0.17308563361572    0.83007730291324
H         1.29784143224521   -1.13757291532410   -2.38737552907353
H         2.20572058255928   -2.68296395235601   -1.94487259751598
H         3.17099552061994   -1.44649144086178   -3.70146537049489
H         4.33993831161203   -1.75523183439249   -2.39186948800992
H         2.31498910287430    1.28507813300045   -3.22479009777739
H         3.66554364128538    1.59788987927325   -4.29750150899760
H         3.00707761606563    3.23944150273419   -2.02116815901884
H         4.56023005811995    3.25832420922297   -2.79800047300474
H         5.39671355053079    2.40037299992566   -0.61909207666560
H         5.43365584575680   -0.18997621139866   -1.30400712939982
H         6.15997505502535    0.81594119374914   -2.56192027304318
H         0.43923390510853   -0.39663887428091   -0.84549359764340
