33
 energy: -44.341610737030 gnorm: 0.123277362620 xtb: 6.4.1 (79825abcba525fcdf90b791dcacef51065a7a4e7)
C        -0.05295085856725    1.86809182351574    0.53092107720434
C         1.20977245541321    1.18347080212157    0.07522644191868
N         2.34684532609088    1.60011282870926    0.54391712065185
C         3.41528712505351    0.80637037504700   -0.12386070169701
C         3.36247177059391   -0.62811410619695    0.47564345255584
N         2.91676468328974   -1.34958637539772   -0.78212596939173
C         1.98030535974446   -0.71376233323828   -1.42285545451966
C         2.18478333323678   -0.75222586122595   -2.94095754264472
C         3.71353716177103   -0.55052659956603   -3.30696508772934
N         4.51148628151566    0.60296135358657   -2.80045861141702
C         3.81656420924321    1.89347518752620   -2.69343700743787
C         4.39376683814541    2.54907837041602   -1.41765643623621
C         4.78338136886473    1.38577419152906   -0.49907936866074
C         5.29105668796502    0.36737140456985   -1.56758115489392
N         1.05179202823571    0.20036658713453   -0.90049533767233
H        -0.90216590767155    1.26321009845221    0.83000769031365
H        -0.40554843985897    2.48495523439265   -0.29792874083732
H         0.07658114022593    2.52956322814016    1.40612724434547
H         3.11097600808312    0.66518467598669   -1.13299738100002
H         2.69733756051828   -0.74085792596962    1.34197835762025
H         4.34929153573829   -0.98853657936193    0.78454031249728
H         1.41810219150517   -0.11221547685575   -3.39485516611982
H         2.02423044937363   -1.78513017497595   -3.26679467330533
H         3.73324543817214   -0.47367011344056   -4.40511689426605
H         4.03901008044843   -1.50848612423514   -2.88161630133146
H         2.75100087998844    1.79442945232621   -2.45670460251229
H         3.98900355304112    2.47257316276184   -3.60735555718942
H         3.69007866298321    3.15142892752859   -0.83582086260869
H         5.29061011963648    3.04214365786786   -1.81511923949123
H         5.41484176095713    1.62718449385858    0.36032593612794
H         5.15065145526802   -0.65720822715861   -1.21362831977578
H         6.34256400747208    0.63975058339405   -1.71576918602386
H         0.18548069872962    0.14601370818734   -1.43644463853653
