33
 energy: -44.349220964349 gnorm: 0.121144105289 xtb: 6.4.1 (79825abcba525fcdf90b791dcacef51065a7a4e7)
C        -0.05014437769888    1.85614035924378    0.54347824886178
C         1.18991066144778    1.16159732905107    0.04277155400475
N         2.30919141506486    1.69779190994219    0.42474304339724
C         3.39145988250990    0.82691995077455   -0.11172612452473
C         3.25903458746414   -0.60780239277610    0.47476832795269
N         2.84517194658746   -1.48500693874784   -0.69158961867155
C         1.92220976729908   -0.87321648271927   -1.37395008178680
C         2.12417041368207   -0.86452617226182   -2.89285133208957
C         3.61509608575712   -0.55656033828650   -3.33333975376943
N         4.40814891286288    0.57174001506108   -2.76605537712778
C         3.98656664231461    1.97853465565464   -2.71134273198251
C         4.51307538010671    2.59169440230547   -1.39323115320171
C         4.76873648611869    1.39426107331650   -0.47146614337062
C         5.31457212401079    0.46872332637442   -1.60372841510792
N         1.08395864288941    0.15582973555822   -0.91675459251709
H        -0.82768277030385    1.18086430143468    0.88397377471363
H        -0.57164994142516    2.50341332639492   -0.16426972286409
H         0.22506513776159    2.40090558306865    1.46423846257843
H         3.03301147617289    0.72186978034096   -1.10740413280700
H         2.52051259531700   -0.69774669176400    1.28232398650573
H         4.18691258782984   -1.00068820058022    0.90350838135272
H         1.44973917286889   -0.08596071641846   -3.27022998945460
H         1.93966373083190   -1.86625992018390   -3.29450436657693
H         3.59496989522836   -0.37756661917867   -4.41952063304868
H         4.24411988652375   -1.43553911351220   -3.14290335335656
H         2.89767971179019    1.98220075212045   -2.83619986318359
H         4.41898603558610    2.41650765494073   -3.61772566514712
H         3.88967427737819    3.25770009230531   -0.78962254097684
H         5.47014139244921    3.10025411700649   -1.56875775683644
H         5.42337869639170    1.55723036644609    0.38904720018353
H         5.47385371275974   -0.56053826468989   -1.27205145947853
H         6.26789300972263    0.81987706600140   -2.01566055300429
H         0.14081909593213    0.13104998316832   -1.30478161784163
