33
 energy: -44.341162294482 gnorm: 0.137362946587 xtb: 6.4.1 (79825abcba525fcdf90b791dcacef51065a7a4e7)
C        -0.00302853789649    1.94869719287046    0.58033669250162
C         1.25833134494439    1.25850049634732    0.12930067859445
N         2.31572787734712    2.01222705731105    0.13155803572185
C         3.43968314454425    1.18255990754364   -0.38409607489668
C         3.73795235454113    0.05621391699381    0.64659330936911
N         3.25829171181727   -1.15433962696866   -0.13163978231404
C         2.18164442463768   -0.91258741582680   -0.82022458859189
C         2.16936457997775   -1.43711595824820   -2.25989247486128
C         3.52814964735709   -1.03682901065363   -2.97067082259888
N         4.26770379919174    0.25094505675736   -2.83464269671076
C         3.57816822114460    1.48795319978749   -3.22725929571246
C         4.11929355896181    2.61111481625079   -2.31277265289541
C         4.62633314085125    1.86243235035803   -1.07533766631653
C         5.22733831905374    0.59824811764549   -1.76613831164575
N         1.19209438558821   -0.06896163849446   -0.29134365196695
H        -0.10920550823562    2.91218148798561    0.09358688487388
H        -0.04052610605433    2.11339393571634    1.65890354532898
H        -0.85085023565896    1.24873418808212    0.47282409218035
H         2.92549732215187    0.63251634056357   -1.13506911707627
H         3.14300094310160    0.25828374288062    1.54706621743746
H         4.75092038613068   -0.09630028472684    1.03359468128045
H         1.28283892659865   -1.07726745906908   -2.79656521686461
H         2.14068766987680   -2.52258421579563   -2.40051489674379
H         3.52556682273573   -1.20968536682168   -4.05802850226446
H         4.27690099080432   -1.70605869834159   -2.52790258967089
H         2.48343466245166    1.52912787334821   -3.26103167427191
H         3.88988323374833    1.68216732699940   -4.25946641098036
H         3.43373574792938    3.40696890164238   -2.00754710406196
H         4.98912865436485    3.01059099725774   -2.85056779539360
H         5.27886147629208    2.40350808866276   -0.38465506670918
H         5.47284843837288   -0.16098658276365   -1.01911280645523
H         6.07222207534774    0.92611538333989   -2.38297884670797
H         0.27061164034694   -0.38252442067964   -0.59669450308977
