33
 energy: -44.339833528219 gnorm: 0.128009387987 xtb: 6.4.1 (79825abcba525fcdf90b791dcacef51065a7a4e7)
C        -0.00724727991714    1.95147854313335    0.56641312749390
C         1.28448101105791    1.35577903228139    0.06900601293179
N         2.33211214207967    2.12030065473739    0.13359671695179
C         3.48979357497559    1.33458213043193   -0.37624863438657
C         3.76810390641105    0.23374780257036    0.68707048878781
N         3.36430445901520   -1.07808733454426    0.04116372824209
C         2.33750411268281   -0.79635543315319   -0.70587758990372
C         2.33991879919579   -1.64749461676444   -1.98003648459684
C         3.53823617005362   -1.16713290303772   -2.89928643642020
N         4.25453355713052    0.14080539372450   -2.90392506196474
C         3.48635657124925    1.33790360256170   -3.27359552615182
C         3.95962023535645    2.56355394241566   -2.45848987871600
C         4.61880756177906    1.90072426063091   -1.24399870960451
C         5.15157924869557    0.54333480799371   -1.80097512945786
N         1.26637388257243    0.09127310601583   -0.51766391965646
H         0.08398424764891    3.02997482181576    0.49553647081582
H        -0.15236973451875    1.54819782015061    1.57047571400768
H        -0.89672818135533    1.66086598429821   -0.02067874090174
H         2.99446362639034    0.69891338657002   -1.07012829764959
H         3.07217943408624    0.48388437064237    1.49871800144958
H         4.75921041007102    0.23636221523858    1.15272694873964
H         1.41292684977778   -1.59660399513866   -2.56444420378419
H         2.52984063004008   -2.69638166120477   -1.72982847922080
H         3.21269850589503   -1.26201194773208   -3.94678627862382
H         4.38889455717070   -1.85304968780300   -2.79711438769288
H         2.40616548938696    1.29749377423245   -3.09240014374019
H         3.47383704364855    1.58008221814268   -4.34201945113074
H         3.11546867407312    3.16871054772256   -2.11537255428739
H         4.64336784247024    3.18187237685739   -3.05480309266420
H         5.27365507578729    2.55122857369690   -0.65780973928091
H         5.22631801313633   -0.16704066675304   -0.97360552715200
H         6.13796202645231    0.51285382446687   -2.27840331879899
H         0.29905310697722   -0.20081329369805   -0.65790393288830
