33
 energy: -44.341684667784 gnorm: 0.128370846793 xtb: 6.4.1 (79825abcba525fcdf90b791dcacef51065a7a4e7)
C        -0.04806528649654    1.89071475233972    0.61518428340829
C         1.24791076542898    1.31195729304091    0.10890412384114
N         2.26049844361802    2.11852947333600    0.00739667940088
C         3.44319595859269    1.30999677612667   -0.39883433885281
C         3.80822634820219    0.28905533699834    0.71667980454534
N         3.27328970008622   -0.98918721202378    0.09934705598161
C         2.24757047628481   -0.83920396926240   -0.68625312351557
C         2.32484627043985   -1.58217993707722   -2.02413942742083
C         3.60259823878890   -1.14184443444109   -2.85189959830718
N         4.27928973227282    0.18305726532546   -2.95451608383756
C         3.53898345349730    1.38240696405925   -3.37081304625489
C         3.98263940915400    2.54427184062259   -2.45220874274448
C         4.60730608830037    1.83768886263800   -1.24415578529619
C         5.20099390370156    0.52849916787214   -1.85254023947677
N         1.18571021863257   -0.03596774358179   -0.24140131995184
H        -0.01857670247249    2.97108523292060    0.70700453835757
H        -0.28851195778365    1.52931552325303    1.61688959796454
H        -0.95814733224230    1.69245684294240    0.02125392916697
H         2.93681777751625    0.73670202902345   -1.13762373139627
H         3.30418362436817    0.75318089969768    1.57468868957756
H         4.89341781763081    0.23645006106752    0.85352656236061
H         1.47096127983350   -1.25269959600742   -2.62891991682353
H         2.34232537324119   -2.66487196173239   -1.86193330246362
H         3.36029066283907   -1.48984276406262   -3.86797878704463
H         4.41370190931103   -1.81992644821871   -2.55718572064164
H         2.44655587674686    1.30240156360915   -3.33236027040445
H         3.91004669122323    1.53916714376770   -4.38967281286885
H         3.12219360607345    3.19202483806534   -2.26093682780519
H         4.74663558410141    3.10375439938315   -3.00782285003604
H         5.29239280718563    2.38962128430599   -0.59482888490289
H         5.39640557629629   -0.33243549799186   -1.20805173490233
H         6.15176631398535    0.72249315850585   -2.36265385815019
H         0.25658498589139   -0.20534456977916   -0.62705530986095
