33
 energy: -44.338433068878 gnorm: 0.128589210533 xtb: 6.4.1 (79825abcba525fcdf90b791dcacef51065a7a4e7)
C        -0.06932525598714    1.99085131498609    0.38270563719383
C         1.28355743110113    1.37057033985542    0.14649880208339
N         2.38675362346621    2.04012923719249    0.29087780547080
C         3.52437139356482    1.28865389916577   -0.30798177640933
C         3.96025118464971    0.19537965376248    0.70922058358735
N         3.37388853020704   -1.06771071163780    0.10760399199829
C         2.27576826484642   -0.85880100891918   -0.55741567776972
C         2.28199576560912   -1.63937224355689   -1.87597337716942
C         3.50132852796540   -1.20031681610678   -2.78821803852507
N         4.06365371754159    0.18084067271146   -2.78756700976667
C         3.45985767099401    1.36297886230198   -3.41826177533727
C         3.93161299937148    2.50723031911597   -2.49158492793234
C         4.57139913711048    1.93261378080420   -1.22298355461480
C         5.13616126695304    0.63277960276851   -1.87723837993557
N         1.27287422067055    0.11940536010765   -0.46828309562116
H        -0.12414177571959    2.65503002434895    1.23848756139675
H        -0.85604016393769    1.26616481579842    0.60121575480100
H        -0.24930469885226    2.47580060157809   -0.59337857767242
H         3.05329109561217    0.73262628160224   -1.08245716958397
H         3.34021321731469    0.38930545620409    1.59443047899541
H         5.03720703910646    0.11413917168214    0.89005460858222
H         1.31096606103983   -1.62200702349054   -2.38610676935640
H         2.53527005894093   -2.69948295606242   -1.77178225717124
H         3.21119274140009   -1.33633502440760   -3.84157125316722
H         4.44472211374652   -1.74541768209689   -2.65625500016190
H         2.37180144201480    1.23131235513953   -3.42692587910901
H         3.84341935983222    1.52079496331373   -4.43231868303693
H         3.12658379300680    3.19487732405829   -2.21662048293674
H         4.69621338118365    3.11597165387393   -2.99182304020096
H         5.30821595757156    2.57136516945530   -0.72831571716642
H         5.28172875390554   -0.08844061473979   -1.06889986054739
H         5.99727302387297    0.72025798252791   -2.55003242376554
H         0.40387867702111   -0.23299134738369   -0.86997266998470
