33
 energy: -44.341505520257 gnorm: 0.125005049919 xtb: 6.4.1 (79825abcba525fcdf90b791dcacef51065a7a4e7)
C        -0.00372595880362    1.96723789251985    0.38427224961520
C         1.33253984255394    1.39996788650129   -0.01999517628299
N         2.41936060533655    2.07651649633856    0.19748777865650
C         3.57241552261808    1.28133363345901   -0.30815115996071
C         3.85751307647495    0.13788496087598    0.70732159339343
N         3.32523906593903   -1.09534066763619    0.00233941606535
C         2.22957877057909   -0.91786381709086   -0.67574096328799
C         2.26573897353930   -1.61254954612079   -2.04103535388683
C         3.64067274868203   -1.21010412519180   -2.71877214628197
N         4.12902503056524    0.19871241181231   -2.74231059361106
C         3.29069875299537    1.30976705599359   -3.21407629844242
C         3.81598909160260    2.51128577653878   -2.39491984833274
C         4.61552055029955    1.93274398478084   -1.22235908062304
C         5.25022786987258    0.68414534684064   -1.91136022969941
N         1.26375257106001    0.07530514083307   -0.44897256897867
H         0.13583874625387    3.03864457782068    0.47972024244088
H        -0.32055133320736    1.56276811650999    1.34752892385279
H        -0.82323279299376    1.77119167671063   -0.33006885971903
H         3.05127383258378    0.79825365300377   -1.09931521616292
H         3.30019123468663    0.37380485445119    1.62350116966037
H         4.90603653528364   -0.13011596150721    0.87438125909404
H         1.38606269817822   -1.34246699657477   -2.63824668413090
H         2.21440347187057   -2.70211348621233   -1.94588571372811
H         3.63524929718450   -1.53069524255920   -3.77206443192590
H         4.49745595599201   -1.80704991621296   -2.38095724438711
H         2.25199792595114    1.04859813640450   -2.98133420649144
H         3.42174791023816    1.43558466724522   -4.29450813316265
H         3.00710932044225    3.17496986289814   -2.07590132109726
H         4.46799558107551    3.22099224360366   -2.92086869888634
H         5.35863482230930    2.64630364547196   -0.85600895267307
H         5.62378936632798   -0.07459681383602   -1.21888510714473
H         6.13246371375835    1.01292922292469   -2.47294622040309
H         0.31463136357235    0.12356823270862   -0.81982402765586
