33
 energy: -44.343178448976 gnorm: 0.138361782439 xtb: 6.4.1 (79825abcba525fcdf90b791dcacef51065a7a4e7)
C        -0.05501428718481    1.87275821161237    0.49230579469115
C         1.30726698708428    1.37924472428115    0.07821900839799
N         2.37881179878805    2.11270384218502    0.07315314341631
C         3.44857500059585    1.24800865077092   -0.49731254173585
C         3.78433262526482    0.27664262722845    0.67044397405356
N         3.37989359851545   -1.07812177986392    0.12071364644636
C         2.29572308900488   -0.90755535241166   -0.57731494923209
C         2.22563640367546   -1.51898103518751   -1.98058651557669
C         3.57656846392379   -1.16933566163036   -2.73189406820027
N         4.16467108536556    0.19809544234829   -2.82174683199222
C         3.40584971952009    1.36970736025263   -3.28143356931917
C         3.95837466069511    2.52887104176106   -2.42024240858299
C         4.64958826813116    1.85671246168573   -1.22890429079022
C         5.28904216686837    0.64208601103773   -1.97211073727523
N         1.29539001561762    0.03872479772704   -0.30433809566805
H         0.10035642757000    2.70075979052315    1.17551457275398
H        -0.73106919608374    1.06257272427019    0.77228217164963
H        -0.50096891407619    2.29010987214104   -0.42815651364698
H         3.00244993961979    0.72931033117001   -1.31145010711943
H         3.22673825523175    0.48926780291059    1.59214344105834
H         4.83572282106046    0.15298645741841    0.95048448054694
H         1.28800831812980   -1.18859300304987   -2.44441150990210
H         2.18308511482435   -2.61127286977623   -1.91792628419295
H         3.39296235495204   -1.57516617127853   -3.73878190278405
H         4.15884162791460   -1.86710713476530   -2.11657822365133
H         2.34505807650817    1.14225434342153   -3.12566544766791
H         3.64682662882123    1.52702873022644   -4.33856034462701
H         3.15477625885719    3.18832584382853   -2.07982377471022
H         4.65328648628472    3.11707155313051   -3.03386740737751
H         5.35406323188096    2.44500585720673   -0.63457732670989
H         5.71165204929156   -0.20863299320930   -1.43133563016881
H         5.98738949538197    1.05604280062979   -2.70883900153140
H         0.41054803216258   -0.16933494510595   -0.76743312881836
