33
 energy: -44.345132165347 gnorm: 0.123114927358 xtb: 6.4.1 (79825abcba525fcdf90b791dcacef51065a7a4e7)
C        -0.08798768895209    1.78924487024580    0.44138838843857
C         1.22400075702522    1.17009670202764    0.03374199529734
N         2.34045718733714    1.63861410142960    0.50301028472749
C         3.39618864827657    0.82213943161549   -0.15753674210658
C         3.39219997006052   -0.61813759297383    0.43027836217663
N         2.88963262278335   -1.48228223887878   -0.71070413299790
C         1.97963929775687   -0.79934520084445   -1.34099905574261
C         2.00644222119235   -0.76364927414073   -2.87264263103181
C         3.49504551598577   -0.44571054861404   -3.31389943655967
N         4.41541561951862    0.54648317423613   -2.68757960666151
C         4.04573393658567    1.96859224550217   -2.66042279018705
C         4.53585469802163    2.63195560495612   -1.35262878544380
C         4.77938042108685    1.40298305773528   -0.46991613754459
C         5.30776884300875    0.37805272928844   -1.52200834977185
N         1.03324694309140    0.12195923370188   -0.86542736470361
H        -0.72722373530783    1.01773785100663    0.85690626872435
H        -0.57967306665301    2.23993747320742   -0.42287962995243
H         0.02417627764294    2.62467048980241    1.15538563911321
H         3.09091190674593    0.73484774239545   -1.17246618028818
H         2.87310324230182   -0.76990374186471    1.38587057408776
H         4.44014080652501   -0.86837834601071    0.62607021228068
H         1.23512889381710   -0.12516905722175   -3.32081120996950
H         1.83662258121275   -1.79102037389649   -3.21103337315388
H         3.46589015187252   -0.10324923296942   -4.35989319002523
H         3.93659330860365   -1.44764231374736   -3.38945694944384
H         2.97436194579067    2.18940982472122   -2.72882707434093
H         4.49974344575947    2.44025588150148   -3.53891336096561
H         3.65239684617376    3.16835118521661   -0.99441393408685
H         5.50696471345864    3.13016199530471   -1.47159792834366
H         5.46725788260406    1.59003631124990    0.35920044744802
H         5.33906074474670   -0.67544026002774   -1.23229643765649
H         6.33826303155353    0.60312676429149   -1.82074092658706
H         0.17148640491731    0.01276697048853   -1.40034514350094
