33
 energy: -44.342609162000 gnorm: 0.115298334566 xtb: 6.4.1 (79825abcba525fcdf90b791dcacef51065a7a4e7)
C        -0.05568178302506    1.82109218944975    0.48658634547084
C         1.19054121486298    1.14562579226294   -0.02479126757099
N         2.34824415742751    1.54320087391249    0.40863018625308
C         3.51060137736930    0.78306434865203   -0.12862235489656
C         3.39626924550881   -0.59904796629086    0.57610035221039
N         2.82171650895805   -1.45467752360560   -0.53698012243019
C         1.91747719668410   -0.91441747053970   -1.30002195806965
C         2.06918451619257   -1.01569177061724   -2.82142032392432
C         3.45611615875897   -0.40822004574183   -3.28953468009811
N         4.29994360515823    0.65206806594673   -2.66699924202506
C         4.09144271400779    2.10413467185854   -2.75546493848700
C         4.52364007722889    2.65383841183730   -1.37647048860759
C         4.84654027535095    1.40289047392160   -0.55201635598899
C         5.30686717135590    0.36599441165106   -1.62417316346083
N         1.01078901430273    0.08383431769057   -0.91010063325007
H        -0.73281116115508    1.95819024656957   -0.34959595053776
H         0.11738522121314    2.83334859110484    0.85702165908273
H        -0.57718461861757    1.27974043859484    1.29608116086698
H         3.25069626769537    0.52355311050825   -1.12661971835521
H         2.70961084983912   -0.38993397898670    1.40701697350031
H         4.31011055033157   -1.01514711850726    1.01301043938264
H         1.24631928880390   -0.42996175101814   -3.24949679531810
H         1.95016865505724   -2.04017642580313   -3.18898633665239
H         3.29203798075671   -0.02378997056265   -4.30812418468436
H         4.12201794423907   -1.27498501564221   -3.38870091449875
H         3.04918869428811    2.32662555131539   -3.01135916175925
H         4.71566728048905    2.49768879042696   -3.56527710362274
H         3.76061072374136    3.27824105559772   -0.90271589930687
H         5.32412906289494    3.33679632731166   -1.68984532671260
H         5.58717040746999    1.59776575179253    0.22842534816314
H         5.16302708590359   -0.66738966922041   -1.29830966117127
H         6.26972818196606    0.63307231195314   -2.07515632494637
H         0.14419733511785    0.13948694803491   -1.44546297337791
