33
 energy: -44.343165883956 gnorm: 0.115707274792 xtb: 6.4.1 (79825abcba525fcdf90b791dcacef51065a7a4e7)
C        -0.04979584276051    1.78073629193916    0.48278596205129
C         1.24595085716744    1.11198680579594    0.10245934322619
N         2.35868342717635    1.58562564333220    0.57541675803467
C         3.49419317260229    0.83646990019690   -0.03031045188621
C         3.34764833421702   -0.57454351539113    0.60805162903977
N         2.87019066198084   -1.35593855468514   -0.60133536765284
C         1.96993713456230   -0.75920677862986   -1.32605414010298
C         2.11740545564717   -0.99753108610444   -2.83250002910866
C         3.47481367185233   -0.44434040182096   -3.43512374269069
N         4.37235993711000    0.55693141002661   -2.79039784215584
C         4.03645916976824    1.98712100096724   -2.82944458829882
C         4.52618626326641    2.61412931887711   -1.50369106664174
C         4.80049933698194    1.45827765847060   -0.53538368856024
C         5.17616362996179    0.34964528558354   -1.56804293354774
N         1.02140823694654    0.19348667733836   -0.92195406383713
H        -0.25874228033125    2.39620502329355   -0.38556911818083
H         0.06821909799429    2.34616311372920    1.40917817137595
H        -0.84032450571312    1.06549943241011    0.77228460528283
H         3.07941987822818    0.71634269789706   -1.00212733935937
H         2.69598965636252   -0.48214161763460    1.48694508245760
H         4.31745678637913   -0.95738152015718    0.94277763366107
H         1.22117665964305   -0.67635361572820   -3.37752780598844
H         2.22056705801084   -2.08165571168912   -2.94594541405892
H         3.25747177854301    0.01172337542485   -4.41338804530760
H         4.21934621882343   -1.24454530031443   -3.53454232361101
H         2.94663335235690    2.10304525514109   -2.84034156788894
H         4.45894500024444    2.53475186290386   -3.67911691360505
H         3.73995190972302    3.24763955584416   -1.08293437824558
H         5.40469731489801    3.26994243822573   -1.56323436459232
H         5.59312052867353    1.75817613020637    0.15556578517941
H         4.99630522211304   -0.64455076757188   -1.15092806732705
H         6.24627310919719    0.34202483737866   -1.80600380123412
H         0.17941933915665    0.24259374497258   -1.49583069671640
