33
 energy: -44.352030709004 gnorm: 0.127778526526 xtb: 6.4.1 (79825abcba525fcdf90b791dcacef51065a7a4e7)
C        -0.04651626138672    1.96291174774269    0.60651522814197
C         1.25075953480300    1.33868918792024    0.16125641657706
N         2.28857710774117    2.11904198757946    0.17468911893961
C         3.41561598709548    1.32833379356174   -0.39283717220809
C         3.75365663228976    0.26844882592282    0.69450490458476
N         3.39963794960744   -1.01574878466075   -0.03121420804221
C         2.30361793705058   -0.81813889618642   -0.70311672864518
C         2.32046837755541   -1.55285717975848   -2.04767231612696
C         3.64439767735299   -1.23863028581258   -2.86020234076121
N         4.23085874391008    0.13154526252933   -2.91008664032627
C         3.42756508797401    1.31062402915966   -3.26263284221111
C         4.00653095093999    2.52417651233356   -2.49929584560667
C         4.57593879729457    1.85948168838266   -1.24119592373505
C         5.16901485807196    0.54913489220663   -1.84768301319727
N         1.26053459585200    0.08763971767970   -0.45377558772581
H         0.14357020868774    3.02958641853748    0.65724188915373
H        -0.31035137080718    1.49992211509665    1.55933692008301
H        -0.92501295946393    1.70359783772096   -0.01098670502206
H         3.02090396038729    0.74945891931341   -1.19283829067852
H         3.15634921619647    0.43874906217787    1.59997303459768
H         4.81452475994972    0.26353517411428    0.96592625215868
H         1.45508613117626   -1.17203283821703   -2.60401996378340
H         2.26422124497064   -2.62491713925213   -1.83235375925093
H         3.40751078722357   -1.45279426597070   -3.91388688331268
H         4.49428502773895   -1.79214813525468   -2.44085744890530
H         2.35769351725504    1.12474063892673   -3.11397322288967
H         3.51963215129736    1.43390686756049   -4.34737332013950
H         3.15046982293233    3.15880000992743   -2.25241888058279
H         4.84671518739206    3.02275457217279   -3.00022327934009
H         5.37436216322520    2.45861636872716   -0.79492650121736
H         5.38356780429359   -0.22305708158544   -1.10441573530950
H         6.06715131660183    0.93512865628973   -2.34384575740596
H         0.33102174282963   -0.31399177260796   -0.57782881968716
