33
 energy: -44.336664919660 gnorm: 0.126587861668 xtb: 6.4.1 (79825abcba525fcdf90b791dcacef51065a7a4e7)
C         0.00997640131308    1.79937471793941    0.61386387347398
C         1.32609369489806    1.38945209183286    0.00506797648693
N         2.31931485118273    2.22541346043121    0.03467503917354
C         3.45686918661816    1.33568967855332   -0.32848321225111
C         3.66523424436893    0.34833908926046    0.85543538036118
N         3.36076016689660   -0.95832868566544    0.14756828674452
C         2.31379855643078   -0.87725116729286   -0.61993439012383
C         2.30474197346902   -1.69488882849202   -1.91581681214784
C         3.45190019179746   -1.18893833611229   -2.88523647238131
N         4.12964338197124    0.13939215344108   -2.88235374021340
C         3.63447813429619    1.40396237100392   -3.44402070899706
C         3.90564587580180    2.49804172923109   -2.38569520325688
C         4.61408046426155    1.80540084820862   -1.21640954026199
C         5.18517149474151    0.53938531196450   -1.92889408155714
N         1.30211081144772    0.08765636201253   -0.49316631961112
H         0.22647044353155    2.77591315717145    1.03339209361979
H        -0.21441528497082    1.11651982288476    1.43556644116173
H        -0.73098189301109    2.05175819125260   -0.16561812627162
H         3.06947744052888    0.71405980819754   -1.09945625786714
H         2.98114617010288    0.36689776887512    1.71411456181709
H         4.68950107532873    0.25882136046460    1.23226281161720
H         1.41494578148933   -1.40240574590582   -2.48691461240846
H         2.35581223619763   -2.78417748980947   -1.81742773645306
H         3.02286771563180   -1.33092751333151   -3.88922996059570
H         4.29614060136494   -1.88543713350398   -2.80345502713511
H         2.63157509430668    1.41233630078032   -3.88605335136846
H         4.30146111135771    1.64223563874064   -4.27990135933426
H         3.00734744033449    3.04211804430830   -2.07979202211763
H         4.55861779540009    3.25247389231472   -2.84381932261482
H         5.34586468739480    2.45892097246727   -0.73370680177954
H         5.23158826001140   -0.27206574277186   -1.19803682732156
H         6.06565639375245    0.86854040172156   -2.49300490031600
H         0.39501847293764   -0.12552047659540   -0.90841363417078
