33
 energy: -44.342253430804 gnorm: 0.122721449623 xtb: 6.4.1 (79825abcba525fcdf90b791dcacef51065a7a4e7)
C        -0.03109366812383    1.97068225212757    0.41105060768450
C         1.29927578818766    1.28735450681253    0.22662177046533
N         2.31300551427628    2.09428087363635    0.14049336698433
C         3.50938071919375    1.35035317792485   -0.34197953954606
C         3.84117352763446    0.25253921672298    0.70904778221305
N         3.49265072039943   -1.01971402021741   -0.03999461063388
C         2.35667898569924   -0.84995623263465   -0.65033306802886
C         2.27939793054638   -1.56638318176749   -2.00262173790892
C         3.58513214254880   -1.25711303488419   -2.84591439115911
N         4.09011578059953    0.14443153100052   -2.77905341991316
C         3.35776779021867    1.30549335582903   -3.30383728327075
C         3.84505676885482    2.48013235687117   -2.42442433746544
C         4.62143008324362    1.92818305369224   -1.22381767739877
C         5.18472891701934    0.65355813672037   -1.92709589865998
N         1.30346361613042   -0.04171587020537   -0.19413833210428
H         0.21896102890713    2.82059544687611    1.03684699963745
H        -0.85604780236390    1.37589576634103    0.80793502498001
H        -0.34514413430329    2.42916486777256   -0.54366128039277
H         3.07722170353350    0.73431003900512   -1.09339482278455
H         3.15645239684935    0.29619369553505    1.56631209914333
H         4.86262847540473    0.14699235584701    1.08934308614187
H         1.51036623497752   -1.14653799247169   -2.66274034437983
H         2.05756440921455   -2.63326868006624   -1.89592786628420
H         3.24921827465382   -1.44891694109946   -3.87674214164827
H         4.33999662245322   -1.96169131566670   -2.47404114718846
H         2.29072910330805    1.06582077391113   -3.23129085332973
H         3.72692480031697    1.47460765852526   -4.32141300842474
H         3.06301951710095    3.17664952501123   -2.10848535384584
H         4.59124911457899    3.08415144502289   -2.95713049367929
H         5.33000375325672    2.68219926609532   -0.87029041447933
H         5.60561519958173   -0.07805256606187   -1.23257436214203
H         6.05570321635171    0.93768164805737   -2.52917176025093
H         0.46479754109038   -0.27558014413283   -0.72577535061439
