33
 energy: -44.341222379266 gnorm: 0.129078182248 xtb: 6.4.1 (79825abcba525fcdf90b791dcacef51065a7a4e7)
C        -0.06414318692152    1.82933519306258    0.57221949151009
C         1.19243087344779    1.14928173875036    0.09328044520978
N         2.36321759958478    1.53322651397244    0.50320856653104
C         3.47657217835372    0.73314438106559   -0.07802487383818
C         3.35048576743604   -0.69847981572807    0.51736975936620
N         2.92001175220594   -1.41300647526184   -0.74963644455442
C         1.97215730538020   -0.76611122872930   -1.36189537432833
C         2.06404929416614   -0.71630708189776   -2.89062033456147
C         3.57481085595091   -0.47351355197701   -3.30339528739067
N         4.52004056742552    0.57005375071917   -2.81215795564894
C         4.04637583097858    1.96119920900752   -2.79981770852727
C         4.34420906193159    2.57490976490883   -1.41228422033352
C         4.77886772373521    1.41829576197622   -0.50554511590007
C         5.27618062728550    0.37767439025662   -1.55738234338096
N         1.03075502442608    0.14807049989630   -0.86323492085881
H        -0.65674926137002    1.10510834965779    1.12068500969206
H        -0.59973183677288    1.99262588068164   -0.36496698463034
H         0.03639215004472    2.85110582780908    0.97987890537379
H         3.14888563750705    0.70922368814711   -1.08943222185663
H         2.62324442666165   -0.67704851529202    1.33975140930885
H         4.34493426704489   -1.06987584667541    0.78620435517976
H         1.47896244505099    0.14562523450955   -3.23439696265569
H         1.80691269281060   -1.62995649037752   -3.43648102084378
H         3.70395213277002   -0.40546806020644   -4.39469041585409
H         3.98135779788491   -1.46399975325386   -3.06215407291985
H         2.97865732828638    2.07295533727958   -3.02064628046157
H         4.61533332885185    2.45742282818204   -3.59378646680095
H         3.49731363851451    3.15772673181507   -1.03861539030811
H         5.19987920020345    3.26263294039432   -1.39545054832699
H         5.47985593578939    1.78463095266433    0.24944672317413
H         5.05840964853901   -0.59722951395015   -1.11365063094745
H         6.36283963949607    0.40101069471173   -1.70036959009212
H         0.12802000290686    0.26726485250712   -1.32318424298745
