33
 energy: -44.344049071785 gnorm: 0.109694467396 xtb: 6.4.1 (79825abcba525fcdf90b791dcacef51065a7a4e7)
C        -0.12661811589320    1.87164892318215    0.51143505641708
C         1.16900982174142    1.24880077994570    0.05950350261445
N         2.14093341068071    2.10373767240902   -0.04366468236185
C         3.41074486881851    1.41172598407468   -0.39894039936452
C         3.78725527392555    0.34641287686311    0.67030620214970
N         3.47156357628352   -0.98432307441167    0.01407337055936
C         2.29514464705577   -1.01394539778552   -0.53993344800281
C         2.27258094838634   -1.62893310863162   -1.94321731274794
C         3.47643053588136   -1.13899943111520   -2.85010403115592
N         4.13471168484140    0.19898012425584   -2.83329112400939
C         3.55914926112276    1.45321396398415   -3.33868366027833
C         4.22811311255558    2.56019177607350   -2.49152254756583
C         4.64220690049079    1.87197359604155   -1.18624787265603
C         5.19192033240255    0.58380647407854   -1.87546128411856
N         1.26340173864689   -0.10710053173954   -0.25050692428928
H         0.18383267163155    2.87413475633946    0.78555797718554
H        -0.50714716452219    1.37306131563675    1.40499287628225
H        -0.91572057837024    1.87030555258144   -0.26162657620849
H         2.99094527326880    0.78680053373415   -1.15002759423461
H         3.28317779021669    0.45917695808013    1.63924428083600
H         4.82746101221945    0.52462692826884    0.96244768547557
H         1.31630820544539   -1.37328700963151   -2.41610612042200
H         2.37217952401593   -2.71881526772342   -1.97601020100864
H         2.98749686264837   -1.23316373927780   -3.83209673376085
H         4.26066334875840   -1.89354835669559   -2.70806366738599
H         2.47038197780596    1.51509689310835   -3.22898500177133
H         3.70605669302586    1.56982321782195   -4.41810822445771
H         3.54600029642348    3.39606900715663   -2.31105861523971
H         5.10578754121236    2.94025465246575   -3.03064936881603
H         5.36572305822097    2.42605992482675   -0.58200343850537
H         5.43385082449937   -0.26298644705938   -1.22802708862053
H         6.05069282401931    0.93445150424834   -2.45973486640927
H         0.41089485228959   -0.66013159268788   -0.34039494826437
