33
 energy: -44.345752783118 gnorm: 0.107066639542 xtb: 6.4.1 (79825abcba525fcdf90b791dcacef51065a7a4e7)
C        -0.06665891518228    1.97538883641458    0.39667200842617
C         1.23968835172880    1.29721063893379    0.07361654227720
N         2.24715469730791    2.11618505462282    0.09572279538353
C         3.47482271290153    1.38832285135339   -0.32921250303228
C         3.87583361058502    0.32094644437321    0.72901160424494
N         3.52099686745685   -0.96063021799338   -0.00092887018150
C         2.40928041154801   -0.82218330120662   -0.66174767545708
C         2.27240810996752   -1.57786397298015   -1.98769537861895
C         3.53910424859048   -1.18672699707928   -2.85615674018462
N         4.18187347293005    0.15730719266281   -2.92116346681959
C         3.38104031228057    1.34997799173504   -3.23100030952462
C         3.96922408455896    2.55597245236582   -2.46274795757075
C         4.60312071553572    1.87710653987195   -1.24365975728894
C         5.12999181412201    0.54087735744121   -1.85478408086413
N         1.29308079186523   -0.02933825169889   -0.35170915510161
H         0.17466717488668    2.75442934019554    1.11176537369083
H        -0.68124889573239    1.20541661778906    0.86705427711012
H        -0.70605484731283    2.37967415332572   -0.40833420531301
H         3.04093684394327    0.72244182148760   -1.03578238591038
H         3.36709428199244    0.41284633086416    1.69771669520423
H         4.95277092245650    0.37935959591711    0.91856054708657
H         1.31446863162627   -1.29659824380989   -2.44231374703022
H         2.43664687597494   -2.64646384660887   -1.81461067613224
H         3.26848869694886   -1.47021779199053   -3.88505562443587
H         4.25337219581747   -1.90789182149184   -2.43868428028026
H         2.31828734512412    1.16944599116549   -3.03290482374440
H         3.36478423539170    1.61155922424591   -4.29478971625738
H         3.19411891372664    3.28971539614012   -2.22322940656208
H         4.81637412451261    2.97440274484379   -3.02191772123825
H         5.48138038006872    2.35903828311397   -0.80548127481492
H         5.14874372318516   -0.27373869710942   -1.12621788214711
H         6.11929565230051    0.70852801892112   -2.29635957704187
H         0.44479113465564   -0.55675110018859   -0.55890840885398
