33
 energy: -44.342791484712 gnorm: 0.121170959500 xtb: 6.4.1 (79825abcba525fcdf90b791dcacef51065a7a4e7)
C        -0.04989613833794    1.82937853044869    0.53870348040094
C         1.25737915605387    1.31526809037718   -0.00678296456176
N         2.22698076029618    2.17283176523310   -0.10999870846600
C         3.43056724557620    1.34955532675896   -0.41185567786998
C         3.70277945430883    0.36009213652603    0.75724803897036
N         3.41963186411896   -0.97185391743947    0.08873618155423
C         2.31703267734897   -0.84584064512781   -0.58961343660239
C         2.22486498952915   -1.50330047945250   -1.97061896376751
C         3.52327220019119   -1.16683182306279   -2.81481082667967
N         4.17930563886129    0.16707130889325   -2.93367455122864
C         3.57669101118681    1.43214744117874   -3.37665787296614
C         4.11425772818557    2.54657777064812   -2.44947853766128
C         4.64981811078523    1.79054298704661   -1.22864014309114
C         5.20570093815578    0.51038579212519   -1.92775840521959
N         1.21409116003557   -0.06256233445653   -0.21461497996041
H         0.10528203308344    2.86428474809508    0.82399239515666
H        -0.24160994545317    1.29327706023064    1.47019613758716
H        -0.92335289082224    1.49233439386623   -0.04762692349889
H         3.07435824656923    0.66038701370721   -1.13921918631463
H         2.96806426870485    0.57474802838948    1.54450104321519
H         4.70683053253914    0.29361515483630    1.18921691583124
H         1.34207412248096   -1.10638911879049   -2.48693084520379
H         2.28673489131915   -2.59372012582175   -2.04804937947764
H         3.25799029883186   -1.37070756673565   -3.86375930372750
H         4.26266939257368   -1.82278269955459   -2.33777740268655
H         2.49165717372819    1.29161806853795   -3.31161515962289
H         3.82455619581119    1.70014043148351   -4.40965327618929
H         3.33194899576672    3.20681484616919   -2.06397118361527
H         4.91022472195742    3.08758124289378   -2.97784366583142
H         5.34034659550289    2.48252539563353   -0.73881427918803
H         5.47696013137664   -0.34526065531711   -1.30402188017943
H         6.12462351270672    0.76910535565683   -2.46670481488969
H         0.30656667991204   -0.43585065151361   -0.49344529522266
