33
 energy: -44.343931410271 gnorm: 0.127736399784 xtb: 6.4.1 (79825abcba525fcdf90b791dcacef51065a7a4e7)
C        -0.13150403223867    1.72442291171258    0.48429487620601
C         1.19936664121041    1.22886346009106   -0.01972675284617
N         2.31153435381168    1.69919977282985    0.45783264565421
C         3.41740504966030    0.89132678739152   -0.12690098524606
C         3.33152764207370   -0.50762886121313    0.54799795420515
N         2.92915414367280   -1.36459578591446   -0.63727172708040
C         2.02514353262762   -0.77957302162129   -1.36684401333933
C         2.11002564390656   -0.95583372262727   -2.88659787731022
C         3.49020567648820   -0.38233710664687   -3.41379525680641
N         4.38166995569007    0.56913676589203   -2.69005845372511
C         3.98333850335447    1.98283685466257   -2.63926110122575
C         4.67742431278899    2.61863208420578   -1.41263818277133
C         4.81556824950626    1.38609835955323   -0.51228448183339
C         5.19442900954218    0.23918538221343   -1.50103605695828
N         1.08710645859896    0.15612928242166   -0.90297289329513
H        -0.82092394226814    0.93117686633813    0.75255186101776
H        -0.59426428993319    2.23093259756700   -0.36490382211113
H         0.10392723390623    2.38547005635790    1.33746402224501
H         3.09044831382845    0.66273680664181   -1.11267043504400
H         2.65714632991639   -0.57461303238035    1.41192724503460
H         4.26539484944385   -0.96910734061685    0.88573236123974
H         1.35108856450287   -0.32654754019942   -3.36769010098043
H         2.11456805317005   -1.99800401797886   -3.22230431361678
H         3.44657408898618    0.08861788046482   -4.40804391934659
H         4.25419637252146   -1.15582205579105   -3.56406137442146
H         2.89063677834198    1.92236520653542   -2.57906462124804
H         4.17069344679765    2.46814698362395   -3.60347534543637
H         3.93060083139927    3.25294820272092   -0.92639377495418
H         5.59433707403258    3.18056066842930   -1.63382855183999
H         5.54024662819959    1.52794651998078    0.29413909248403
H         4.91534520027867   -0.74803498824549   -1.12385198300564
H         6.22843339505832    0.31627306606245   -1.85699977727472
H         0.18311650000592    0.22315299660894   -1.37094851849657
