33
 energy: -44.348118720957 gnorm: 0.130517221023 xtb: 6.4.1 (79825abcba525fcdf90b791dcacef51065a7a4e7)
C        -0.04468452308225    1.89557996985533    0.71407123615707
C         1.26755122175725    1.34305586197378    0.22052471655878
N         2.25947843925274    2.17195531354735    0.09722699493503
C         3.39587463999302    1.34332485196621   -0.39215772684735
C         3.73816078823748    0.25768186130410    0.66810634371896
N         3.36656579878259   -1.00575039382589   -0.08476619369795
C         2.20035355016178   -0.86673238220987   -0.64368078013684
C         2.24689644878409   -1.52170912177104   -2.02815317998534
C         3.59638483186520   -1.22310466366064   -2.80368449576650
N         4.30377897955134    0.08752831841940   -2.87878931348622
C         3.71557356366454    1.29664123997644   -3.47196430683386
C         4.04293161870251    2.51775636723477   -2.58184689444885
C         4.52319158382271    1.92139602093394   -1.25423075566259
C         5.16765099721920    0.60822897612391   -1.79905999324774
N         1.19588245455609    0.04209395477660   -0.27530427348627
H         0.14645692227834    2.85095633283317    1.19074918310028
H        -0.48216346683293    1.16532745798098    1.39757762501305
H        -0.79849809715334    1.97017579994959   -0.08998681598396
H         2.84581234603005    0.85534811489417   -1.16040617006242
H         3.07699564993168    0.50854818930939    1.50809301027769
H         4.81364074938507    0.25041288694874    0.87407937589438
H         1.36698755366668   -1.28204874978821   -2.63787405216537
H         2.23500926620613   -2.61379718229825   -1.95043102401528
H         3.56271681310142   -1.37099864386046   -3.89420113902872
H         4.32597530995689   -1.92712992527032   -2.38346215984178
H         2.63105683981029    1.14023225553473   -3.49720705955979
H         4.00339301860193    1.44581907989749   -4.51850280657369
H         3.14643692427956    3.09103777953564   -2.32850610387468
H         4.81074924515550    3.15394310755696   -3.04134710805047
H         5.21422406715499    2.55840294784778   -0.69539722701123
H         5.42867654508244   -0.17949702479990   -1.08764375564284
H         6.07529434202420    0.90564428302472   -2.33715426175948
H         0.25110373186177   -0.30913938333620   -0.43252865053936
