33
 energy: -44.343902611825 gnorm: 0.132037372478 xtb: 6.4.1 (79825abcba525fcdf90b791dcacef51065a7a4e7)
C        -0.07639903267544    1.82689482138258    0.62574394993271
C         1.14102277271505    1.16896357115856    0.02921707812416
N         2.26893702954317    1.60867262888665    0.49896339035493
C         3.36524311395818    0.84387503190163   -0.15732905314187
C         3.34368961025851   -0.59608967122689    0.43086947199437
N         2.81467063429815   -1.40542052098866   -0.73801180762941
C         1.95252236861111   -0.71945948645076   -1.42932963872385
C         2.11612788991095   -0.96815902106721   -2.93242856118177
C         3.60324971185092   -0.54929245161177   -3.28563082349804
N         4.36589586470876    0.57612946182955   -2.67276673339725
C         3.96452470432351    1.98971287518758   -2.65087230808511
C         4.55530933294820    2.61309746362831   -1.36519752769450
C         4.76087652000222    1.41231366912880   -0.43529413244667
C         5.27681856794625    0.41593888693698   -1.52047412620967
N         1.01681260942719    0.23347233988876   -0.99689824261501
H        -0.68448137632766    1.03875291933947    1.05652128712522
H        -0.62592990158101    2.22922849414035   -0.22747406682365
H         0.36321972242373    2.60341644635294    1.27694154923800
H         3.05006930740371    0.83243576505805   -1.17292252742812
H         2.87024107798684   -0.69619679750149    1.41650423990433
H         4.36420553997490   -0.98324460023561    0.51914843179198
H         1.40632012114456   -0.31549935377476   -3.45553906326742
H         2.03614416172902   -2.03129927085278   -3.18177526505821
H         3.64562978934052   -0.39735715444845   -4.37528779323474
H         4.23236764969340   -1.44859479429858   -3.28819258875762
H         2.89121746669631    2.19693530288108   -2.57119842240248
H         4.38717943978974    2.40665625239310   -3.57166441095311
H         3.84880397284570    3.35033833804179   -0.97294513288812
H         5.54364859309294    3.06054159298904   -1.53371216442315
H         5.47372661680975    1.57642671264586    0.37742370170645
H         5.22687218423938   -0.62029280120267   -1.17625195755257
H         6.27038168557341    0.58706119123543   -1.95101707952077
H         0.20350665091745    0.21814018072433   -1.61251949875318
