33
 energy: -44.342195065273 gnorm: 0.124791323523 xtb: 6.4.1 (79825abcba525fcdf90b791dcacef51065a7a4e7)
C        -0.10167804596073    1.75277363826917    0.67508561558125
C         1.13949443996715    1.22499603765286    0.00294325189095
N         2.27629583604493    1.66798809860951    0.44750690403631
C         3.39384460556136    0.85260385081015   -0.10363321600879
C         3.24615089578192   -0.58672654995412    0.46772915370160
N         2.70636059799665   -1.43733764601930   -0.66639964952932
C         1.83561564689693   -0.80204635554401   -1.39439053376672
C         2.18372951671640   -0.89862216562889   -2.88348905987823
C         3.64043629231155   -0.48708548801853   -3.35293048661140
N         4.47816633981084    0.61583291061754   -2.80013270097795
C         4.17402956132469    2.05361218981441   -2.80950288022806
C         4.59143086420753    2.59704220909171   -1.42348180401486
C         4.77347739369418    1.40389381428510   -0.47896294455645
C         5.23574616680797    0.37209091962343   -1.55519009693760
N         0.96721595356479    0.19276468579244   -0.91809052694791
H        -0.62031837615499    0.87123775649975    1.03620555565314
H        -0.84446953860068    2.29790705584648    0.08948516797676
H         0.32760630489936    2.32233893418214    1.51866081557149
H         3.09368248086539    0.77899723780569   -1.12116958168200
H         2.58102224907514   -0.60835679350952    1.34110585518809
H         4.21672924668216   -1.02033074434352    0.73059782634932
H         1.37810649826864   -0.48627576407718   -3.50347155314006
H         2.14235872176616   -1.97239864191329   -3.09356264288947
H         3.56603826063790   -0.19788715141420   -4.41267666624971
H         4.25942131618396   -1.35961486479339   -3.10779649463478
H         3.09491306983191    2.17184626890220   -2.96051873692595
H         4.71300076124426    2.54705850716750   -3.62581022223773
H         3.84014587420660    3.22092321470313   -0.93065401957986
H         5.45650495378745    3.27307897149557   -1.41723385545867
H         5.55387522793513    1.56564137661191    0.26964614577364
H         5.12651507105130   -0.70056211407145   -1.37562481638478
H         6.30215214477223    0.44602177997348   -1.79835724615522
H         0.12170484886505    0.23107036950294   -1.48759455809359
