33
 energy: -44.343686119828 gnorm: 0.125840234658 xtb: 6.4.1 (79825abcba525fcdf90b791dcacef51065a7a4e7)
C        -0.08148831032701    1.87578704715396    0.52568119605169
C         1.25655735359907    1.29590502894091    0.14593869576584
N         2.30731900543915    2.05884395261443    0.14142209828713
C         3.41404785896003    1.20840598794384   -0.37764311323267
C         3.81320344725640    0.10984637597081    0.64889573671060
N         3.35298641303473   -1.14852110644441   -0.06235142451276
C         2.28808277292246   -0.85565278274314   -0.74935282535321
C         2.12133450997217   -1.39646169631340   -2.17330695453417
C         3.54173813838804   -1.10282057107031   -2.81202504754347
N         4.23040206631569    0.21931633776913   -2.85078122659813
C         3.50257765815139    1.42289286459108   -3.27677586430623
C         4.05396601715195    2.56315802596020   -2.39000604701972
C         4.57943505604127    1.84559745752015   -1.14186781802658
C         5.25990042008220    0.65244400605472   -1.88343794915033
N         1.24633467647712   -0.01707490028507   -0.32253106193131
H        -0.19005690590822    1.55353340192300    1.55566486883828
H        -0.90864171521507    1.62214516544128   -0.14014203740242
H         0.19336644157242    2.94571043535873    0.52042614034484
H         2.92716186112477    0.71498231899462   -1.18409869254783
H         3.37726084517025    0.23708397521095    1.64860344111415
H         4.89999643911259   -0.02430280678913    0.64443816091430
H         1.22583119962211   -1.01086379673147   -2.67612341321563
H         2.05354473711058   -2.48849880491449   -2.13210163194260
H         3.46468992736729   -1.45868822505315   -3.85108929387406
H         4.18318503626304   -1.74638514096411   -2.19646742977814
H         2.42352546557347    1.26560289013712   -3.16639595588909
H         3.70972346816344    1.69037405511411   -4.31883216338132
H         3.31268593309607    3.30999157558340   -2.09120952737736
H         4.99332216391867    2.99665196318241   -2.75758048001705
H         5.21953400372248    2.39046612734260   -0.44258954226151
H         5.58003121648569   -0.22483159266423   -1.31540322005460
H         6.13034183081137    1.16249209461854   -2.31239068146405
H         0.32052831915012   -0.22157340237144   -0.69903360283658
