33
 energy: -44.344042367715 gnorm: 0.117835198600 xtb: 6.4.1 (79825abcba525fcdf90b791dcacef51065a7a4e7)
C        -0.08470572066753    1.86976285097125    0.61310482987163
C         1.19395178488310    1.33403098724783    0.02246106534078
N         2.30554385785638    2.00135629781494    0.09482283086514
C         3.43372425408133    1.09852717910788   -0.26521985941086
C         3.66579387101571   -0.13314306634530    0.65623143972527
N         3.14462158010669   -1.25779357570613   -0.21824075934872
C         2.10133175488472   -0.89024356412466   -0.90250376334540
C         2.13483069967536   -1.31689338497543   -2.37382029693739
C         3.50132551405457   -0.89839589348527   -3.05886343932956
N         4.30650347241506    0.34403476312876   -2.88036823948201
C         3.81353497127393    1.68207087726064   -3.23594896213535
C         4.18062719003559    2.60767460726672   -2.05311528886268
C         4.67951911181923    1.70681366882641   -0.91803100429747
C         5.27297613238365    0.55001448706054   -1.78185907408854
N         1.13966246547114    0.01618006598253   -0.42898805126330
H        -1.01810792443224    1.69868019824837    0.08775546638534
H         0.15535361113864    2.92339030605337    0.76827650027357
H        -0.18918838699423    1.35881856184411    1.58692622270642
H         3.13875379445720    0.64845612442369   -1.18245699656755
H         3.11010373597488   -0.07628185682454    1.60154944203969
H         4.67396694246588   -0.52432329462109    0.82856820340274
H         1.29694631356755   -0.85205243018462   -2.90796348289172
H         2.12026436287649   -2.41135997833536   -2.34608814941210
H         3.37001971067253   -1.04555826687112   -4.14206920546837
H         4.15321392502806   -1.72141443084175   -2.73914069187178
H         2.72873658314874    1.74918885704146   -3.37731770619375
H         4.28039602221406    2.11487275243707   -4.12761044196350
H         3.33126240125323    3.13849774932612   -1.61340843278089
H         5.04094374285269    3.24979623202668   -2.28323085294484
H         5.36190922485713    2.24693845580034   -0.25605851460716
H         5.26131369038178   -0.37611317756426   -1.20141856078360
H         6.28907766135647    0.77013939270668   -2.12956649384974
H         0.22290676822563   -0.12034384556753   -0.85514696855820
