33
 energy: -44.336018956785 gnorm: 0.135018629593 xtb: 6.4.1 (79825abcba525fcdf90b791dcacef51065a7a4e7)
C        -0.05571397170193    1.80476240701848    0.79979859780214
C         1.25452178853474    1.31101682721354    0.24272473761767
N         2.18727103614736    2.20987635260941    0.15202387609202
C         3.31813204365545    1.43941457235288   -0.43539778435936
C         3.73817895900390    0.34639662338135    0.58871781924538
N         3.34966897337913   -0.92939049199223   -0.13418479454685
C         2.21560160509277   -0.80745314458725   -0.75931281115889
C         2.22356337792447   -1.56518442597620   -2.09111780029242
C         3.56487786269460   -1.23385691447404   -2.86753901554975
N         4.23846238701774    0.09354446039839   -2.77756386093014
C         3.54701077262294    1.28004808980174   -3.30091848026218
C         4.20950865906241    2.46564187240996   -2.56196083425888
C         4.57603188608527    1.86183606311816   -1.20183613956030
C         5.22870888874392    0.57198160534234   -1.79078667470541
N         1.18357954856223    0.04357594460899   -0.33350917270766
H        -0.11963178744636    2.88613548713040    0.85500446736722
H        -0.28238077798050    1.36582427615849    1.77334521608374
H        -0.74537903007687    1.54139595011667   -0.02197328251722
H         2.82966324360046    0.96124603739377   -1.25004407476072
H         3.21717762394353    0.41168027281132    1.55305516129821
H         4.77771147079051    0.21927022815154    0.90863329906577
H         1.37445435077831   -1.36612775267961   -2.75656998315188
H         2.25686560242508   -2.62751080123071   -1.82807405315209
H         3.52330833980741   -1.40550067585061   -3.95429708979289
H         4.34681133717742   -1.86266391318718   -2.42287908229434
H         2.45528891682128    1.21833283535250   -3.22600445839238
H         3.76584315125272    1.47867402867810   -4.35590522445485
H         3.58042305541495    3.35129382286462   -2.43386790265648
H         5.17500984764628    2.78136468713364   -2.97854754365496
H         5.26733527747886    2.50917450598623   -0.65534625332572
H         5.58960907976172   -0.25503325828142   -1.17389355484578
H         6.00900585354696    0.98386557523064   -2.44140637409771
H         0.30503227203650   -0.11180686467822   -0.82818288131214
