33
 energy: -44.344548961593 gnorm: 0.121443637277 xtb: 6.4.1 (79825abcba525fcdf90b791dcacef51065a7a4e7)
C        -0.07692188364597    1.80350683221725    0.53097668380035
C         1.27019901556396    1.22184104895630    0.18780921184752
N         2.34836685950468    1.92918071977492    0.34084821543573
C         3.48311015249556    1.17722488227738   -0.26284230378668
C         3.62667330430135   -0.03211752778620    0.70505281502545
N         3.21273279442104   -1.19551845985892   -0.17603315070089
C         2.13885032849597   -0.97632148703601   -0.87638426167244
C         2.09907037705081   -1.34062569062171   -2.36420973331871
C         3.45522451655624   -0.91611212501396   -3.06589808675985
N         4.20249683261483    0.33693045509769   -2.75723255106294
C         3.66035225488227    1.64321812968215   -3.15659205287360
C         4.27309055419907    2.59553781946480   -2.10386538007282
C         4.74693565082712    1.69927976029173   -0.95449501911182
C         5.33255503494861    0.54619704955367   -1.82858009182865
N         1.25427708359009    0.08172814718424   -0.61429662410610
H        -0.59053151877119    1.96801304111332   -0.41010979679856
H         0.09470211617527    2.77896790708352    0.99016992927342
H        -0.73864131928694    1.12359252237977    1.09679707246741
H         3.12162175707476    0.70561956673570   -1.14477770898519
H         2.87246155614348    0.08060763809214    1.49505821289878
H         4.55711215890276   -0.33704553980799    1.19539689504801
H         1.26882117968998   -0.76156541142878   -2.78707115292569
H         2.01092760322302   -2.39584991517200   -2.64272555202513
H         3.17811617350286   -0.81554184768201   -4.12671348277228
H         4.16128717826468   -1.74832782563079   -2.94999643160665
H         2.56647142255939    1.65842692134062   -3.08972720801325
H         3.86439738847496    1.88623597749934   -4.20523155656729
H         3.56145645005959    3.32548866618966   -1.70727423733551
H         5.15542183626547    3.07503308901717   -2.54770512575037
H         5.44716844871011    2.16144359622582   -0.25329801052616
H         5.48934951352518   -0.33650646945596   -1.20327245581958
H         6.24984371191814    0.94015596885355   -2.28156529601701
H         0.28328397748687   -0.14112313220642   -0.83384368293437
