33
 energy: -44.345645266640 gnorm: 0.122062203830 xtb: 6.4.1 (79825abcba525fcdf90b791dcacef51065a7a4e7)
C        -0.04365811189167    1.92709177854500    0.35090260770106
C         1.16345692391650    1.10715243246612   -0.02513791858709
N         2.29609952339097    1.60553560708773    0.36847509136816
C         3.41342715394920    0.75183729126376   -0.12172928112102
C         3.34461603681246   -0.62133610347553    0.60600711999549
N         2.92173409511257   -1.45555946274779   -0.58831411225850
C         1.97998824718103   -0.93405658787041   -1.31832236436148
C         2.18727437073803   -0.89477152788718   -2.83602251903871
C         3.54295506661537   -0.33572952272432   -3.43713335142442
N         4.43085108603235    0.64013449481539   -2.74205341898347
C         3.94635972941286    2.02557653764728   -2.66712198799543
C         4.52422198446786    2.59640160481228   -1.35151246275400
C         4.77390249235391    1.34894350502500   -0.49689684789577
C         5.31394322327462    0.37213891762079   -1.58812703888368
N         1.03477414637187   -0.00475851600188   -0.85614904579073
H        -0.80830008269794    1.32847597823263    0.83410307500936
H        -0.39050430377462    2.54861549345287   -0.47689176900569
H         0.21424092415932    2.62908508644612    1.16392307672288
H         3.05409424848949    0.59536666822822   -1.11031023467862
H         2.63988998291214   -0.58125046042648    1.44708094622017
H         4.29534447639473   -1.06065621457939    0.92576976561125
H         1.36898368852804   -0.33998556831987   -3.31146884610594
H         2.01428794079367   -1.91378476994441   -3.19730645070924
H         3.35516651046184    0.18844858636263   -4.38697832997384
H         4.10941449368880   -1.25901140643862   -3.61381082932245
H         2.86861788088198    2.22409519228326   -2.68557037511930
H         4.27398057290597    2.66580535687491   -3.49362579516273
H         3.74207432017918    3.22044575517493   -0.90952852348346
H         5.47352161633431    3.13239721431509   -1.48173089806577
H         5.46188712570965    1.61420212034792    0.31051484629992
H         5.20339627833239   -0.64518671844153   -1.20395575266219
H         6.36364582770622    0.54017630823820   -1.85590609300261
H         0.07212799165600   -0.19925684424167   -1.13214539859655
