33
 energy: -44.344589919298 gnorm: 0.123762358347 xtb: 6.4.1 (79825abcba525fcdf90b791dcacef51065a7a4e7)
C        -0.06448768570780    1.89367185249786    0.59021804954269
C         1.22852589422474    1.32106610056388    0.06957206112803
N         2.29308430408817    2.06099948089738    0.14312633275592
C         3.45989061096228    1.33113579183704   -0.42554247113839
C         3.81039946106011    0.32109435471222    0.70445764151015
N         3.38989728639149   -1.01641388533067    0.12531120872926
C         2.32686239422701   -0.85795353471748   -0.60722525662473
C         2.26961901312567   -1.54989032970943   -1.97319425043530
C         3.54685696013519   -1.21330085683344   -2.84903848500815
N         4.14356377813044    0.15324477751015   -2.86636041641489
C         3.58584797314091    1.38865482422543   -3.43426124007793
C         4.03481381375185    2.56794772143313   -2.54078913671676
C         4.59579815264010    1.91210735363373   -1.27428611847328
C         5.13059667877821    0.56139865239120   -1.84538249305815
N         1.24109126610578    0.00478509000634   -0.38948252780658
H         0.16883099304789    2.78472484779464    1.16300759640732
H        -0.49798258810370    1.06607614039030    1.15502337174624
H        -0.73539256128586    2.33406406641979   -0.16889336400104
H         3.07089677008043    0.67381794947861   -1.16548337162894
H         3.27811330398511    0.61858929385905    1.61759457647643
H         4.85489265931136    0.21621434178403    1.01617709652924
H         1.31109177501779   -1.34391671807270   -2.46536974597798
H         2.41192411420730   -2.61222323803580   -1.74950600217460
H         3.14282709842080   -1.37170130890601   -3.86091885862681
H         4.35314717961703   -1.92424610411067   -2.62769353016110
H         2.50756687341908    1.19799302359711   -3.48154168996699
H         3.85824075018494    1.66582632130549   -4.45862203450080
H         3.14682364655399    3.16809167517724   -2.32207340844234
H         4.76113865462668    3.18463301513127   -3.08628835553981
H         5.30520490689714    2.43463660724567   -0.62674934822674
H         5.22266058646080   -0.19665153580687   -1.06330589460942
H         6.14333753850368    0.71940827836418   -2.23423549525074
H         0.32916850240623   -0.38741954706494   -0.62456463927301
