33
 energy: -44.340845313518 gnorm: 0.123020554167 xtb: 6.4.1 (79825abcba525fcdf90b791dcacef51065a7a4e7)
C        -0.02928609166593    1.95798689680925    0.50208264271599
C         1.26957326153804    1.26693472492567    0.17613018637987
N         2.31547268927580    2.02243468085455    0.02946576175150
C         3.47412978558805    1.18558070892371   -0.38851908613486
C         3.77876824528036    0.11003701711238    0.69330417958533
N         3.22709407420477   -1.16314892647174    0.08026738116820
C         2.18030402938396   -0.90584323136781   -0.64759724703148
C         2.28272390557322   -1.48640756214618   -2.06194508776133
C         3.56329689997339   -1.12165905388985   -2.92149361187683
N         4.15004545407795    0.24562140670925   -2.82111284308490
C         3.48943684179861    1.48586286182150   -3.25145414063560
C         4.04129924821288    2.59994739253602   -2.33229256439173
C         4.63750953831431    1.83442866948235   -1.14596449535748
C         5.27294720906979    0.66038585436629   -1.95492491027547
N         1.13558487562757   -0.04500828732432   -0.27590671100468
H        -0.61885620783087    1.44880920647025    1.25683165444330
H        -0.62842778768427    1.92479525467861   -0.40992891886627
H         0.27280658797978    2.96795377760684    0.83225792199284
H         3.03716561649335    0.64324752947417   -1.19215614901632
H         3.30326165720276    0.26115448027032    1.67141861410957
H         4.85940860498393   -0.00668495555102    0.82644796486679
H         1.46873583772721   -1.16500159104871   -2.72342670656407
H         2.28966208868469   -2.57362206699735   -1.93250455997486
H         3.22186942395418   -1.10009122406025   -3.96800917259126
H         4.34365483428333   -1.88128184448995   -2.78527558516573
H         2.40050813035940    1.43941857280673   -3.13589169804331
H         3.67785336551954    1.61189837442858   -4.32334553583917
H         3.25739526019873    3.21558082648453   -1.88170862749548
H         4.88985936737091    3.16308708995146   -2.74246000503310
H         5.44521743224853    2.37274285544454   -0.64255171847905
H         5.69768200397417   -0.07897623475491   -1.27103624792708
H         6.15438941308081    0.99966354856484   -2.51149299187711
H         0.29070883499143   -0.24875830032453   -0.81009920169700
