33
 energy: -44.344443091643 gnorm: 0.126591512555 xtb: 6.4.1 (79825abcba525fcdf90b791dcacef51065a7a4e7)
C        -0.10246558196787    1.80448122561018    0.43935493643219
C         1.21985557802011    1.20039915943289    0.04263674251991
N         2.35917566768214    1.68822770232167    0.43015356904993
C         3.41993171885747    0.80970126224015   -0.13598252319417
C         3.32598535155762   -0.59713474871820    0.52122896244144
N         2.92614206972388   -1.37672532636740   -0.71712673867996
C         1.92932465565894   -0.84835300898726   -1.36438270536155
C         2.11653429555854   -0.93697307553549   -2.88261314157420
C         3.54694187186899   -0.45682122527868   -3.36750563108143
N         4.33245780397900    0.60918069533068   -2.68164072754062
C         3.91614833638721    2.01795389982315   -2.63873696704968
C         4.63201901180269    2.57908573470517   -1.38843512053991
C         4.80918789008456    1.35562689749442   -0.48255456519154
C         5.29564424913847    0.36645696010813   -1.58775933162973
N         1.06980973126124    0.12610763374417   -0.83307363731263
H        -0.89713089941291    1.06949607584718    0.50867140320142
H        -0.43672665742430    2.63413652790683   -0.18656770363049
H         0.07055273913550    2.30662203111417    1.40797667558185
H         3.00872924469185    0.65457343994342   -1.10435403256848
H         2.60809862150488   -0.46281239793919    1.34113566695341
H         4.26410407188541   -1.06320438984349    0.84036409754305
H         1.35513081033502   -0.34010537910765   -3.39976882341129
H         1.90367067446683   -1.94891893761021   -3.24246453485525
H         3.40099876850677   -0.26636828394034   -4.44205716731550
H         4.23778470943978   -1.30585104481807   -3.28734834386604
H         2.82673671125737    2.13132240945194   -2.67882915465706
H         4.30912286460674    2.65553595190879   -3.43836003404044
H         3.91531574707772    3.34056198655560   -1.06745813981268
H         5.60240493417336    2.98546934835649   -1.70247563762912
H         5.46045521430708    1.43356469085885    0.39230268581768
H         5.25858757185822   -0.66203443322104   -1.21953126158383
H         6.33830398992886    0.66861888409086   -1.74065336117790
H         0.18352053104871    0.08850892133721   -1.33682854027613
