33
 energy: -44.340107533879 gnorm: 0.125473431870 xtb: 6.4.1 (79825abcba525fcdf90b791dcacef51065a7a4e7)
C        -0.08464160546110    1.78208851500962    0.36544868857340
C         1.22598792127897    1.08368118086771    0.10988820189835
N         2.35950984485630    1.53803755104532    0.55134552923003
C         3.45672852034346    0.77997607551903   -0.11120721722530
C         3.35019867582990   -0.65943437255179    0.46904216998915
N         2.85568340039630   -1.47300128536140   -0.71194236624824
C         1.95673239646188   -0.79147716882677   -1.35937924252593
C         2.02568369688314   -0.76722725202490   -2.88992890966732
C         3.55413246630647   -0.50122771567825   -3.21368958094240
N         4.42112751763753    0.64328186662439   -2.81091987498508
C         3.99630952390493    2.04583611684310   -2.70061351653613
C         4.53963548245833    2.67573167543087   -1.39730121789449
C         4.77633473503873    1.45098437859946   -0.50689264494752
C         5.24301132413004    0.43921230593522   -1.60010111364315
N         0.98601589454436    0.05211531770311   -0.79662710552320
H        -0.90167943393640    1.07075636994268    0.41982402996941
H        -0.21997852421686    2.60475483133756   -0.33935028425197
H         0.10809598513724    2.33796740208864    1.30041376135054
H         3.06162133765783    0.71654492446543   -1.09647991744042
H         2.70898503575940   -0.66749807807864    1.36035069772057
H         4.34560603687695   -1.09110903608387    0.61721789252032
H         1.44081791160699    0.05768990506953   -3.31522881458805
H         1.76111255629928   -1.77576142103501   -3.22414338613814
H         3.72307653498487   -0.63636040216221   -4.29324030969556
H         4.06745541755985   -1.39098618806699   -2.82720534505758
H         2.90642378332369    2.09593143135881   -2.80509807261927
H         4.37116944362757    2.68979395462532   -3.50381663158002
H         3.75206521946709    3.35922602626656   -1.06699163264303
H         5.51971487010627    3.12115909399499   -1.61283945333733
H         5.57060407502668    1.50948198981936    0.24231551770430
H         5.16396320066667   -0.61059441559528   -1.30613360437267
H         6.31994824588671    0.62302730616379   -1.69085714699954
H         0.14630534677721    0.17600586270621   -1.36251449208979
