33
 energy: -44.338963874354 gnorm: 0.124303886163 xtb: 6.4.1 (79825abcba525fcdf90b791dcacef51065a7a4e7)
C         0.03212648594105    2.06254438856243    0.40844752826165
C         1.27780887508363    1.29566211353866    0.04650739421210
N         2.40346221614562    1.93134818789141    0.16899825328738
C         3.52899439371421    1.03450778245231   -0.21359392604354
C         3.63174201957784   -0.17208292810343    0.76289068024753
N         3.16311355791182   -1.33030352876036   -0.09738448576992
C         2.16725382179314   -0.93994077436957   -0.83741343112234
C         2.16606548264954   -1.42082092344530   -2.29229400528124
C         3.50245280216810   -0.95117502577770   -3.00309216275573
N         4.18648575801994    0.35574859090559   -2.78433291421712
C         3.54904132913226    1.64374466961840   -3.09178526380484
C         4.08702807974825    2.61912445316499   -2.01949845623799
C         4.69389793460342    1.70609768315911   -0.94854046849426
C         5.32872226875858    0.63454012403772   -1.88946394211883
N         1.20232735106966    0.03892004386883   -0.55214659312626
H        -0.06666503538754    3.08704495544924    0.06619071747775
H         0.00892015935825    2.08391289509394    1.49970478247667
H        -0.84447486078834    1.45514459195449    0.12044690155600
H         3.08716160806381    0.64223824357105   -1.09779067606138
H         2.87116903703602   -0.10277552370178    1.55179883429960
H         4.67678201257219   -0.27516110496450    1.07337606995110
H         1.27045185676026   -1.10776961921732   -2.84303116746591
H         2.13940367465040   -2.51516613028863   -2.31544761584318
H         3.18709936469806   -0.99040075710883   -4.05724882638677
H         4.26592802849815   -1.73670166752050   -2.93531220723647
H         2.47891474020986    1.43917604672008   -3.21119319698623
H         3.85997134330586    2.01525322324770   -4.07445551511339
H         3.35148834614882    3.22328390384095   -1.48051002346902
H         4.88314508429511    3.31063751497208   -2.32515402366583
H         5.41560264345669    2.25587282514238   -0.33822232426421
H         5.78134057887007   -0.30853974144746   -1.57245182270569
H         6.12493344426774    1.15141356956673   -2.43783184031853
H         0.41303427235595   -0.18341124766258   -1.15900443495093
