33
 energy: -44.352252107277 gnorm: 0.123126791450 xtb: 6.4.1 (79825abcba525fcdf90b791dcacef51065a7a4e7)
C        -0.06889214417840    1.82224533980320    0.54723927316444
C         1.21686838876329    1.19232720050873    0.07728536309321
N         2.32485311518210    1.59125319592019    0.62448196098635
C         3.40088839881020    0.82863579400791   -0.06695490056216
C         3.31805794045009   -0.62146050608915    0.49009109517480
N         2.90980995723358   -1.38984008482010   -0.75252202295382
C         2.00301461480390   -0.72376083791056   -1.40507329525118
C         2.12528796271699   -0.76417952435926   -2.93194597194740
C         3.65132552176049   -0.58174954070430   -3.31880646758260
N         4.43663038215257    0.53023257777784   -2.71003877847597
C         3.90340994988162    1.89768275460026   -2.78455214473966
C         4.35358403126134    2.52101243004480   -1.44313577391045
C         4.76175183764561    1.38724044729195   -0.49612994006057
C         5.32592503114203    0.37354582173864   -1.54049880878351
N         1.09846157522188    0.24152512079538   -0.93535470152901
H        -0.86109559844353    1.08502385376146    0.62085361516613
H        -0.38919310723937    2.60970063228795   -0.13771254211759
H         0.16118862346113    2.33326775052901    1.49919921506600
H         3.04365027446258    0.75680581816250   -1.06601289168579
H         2.64590866996996   -0.78642987592570    1.34252954648492
H         4.31147864184395   -1.02846466565820    0.70595633252674
H         1.56659277491392    0.07534532298213   -3.36379551931360
H         1.77671881159875   -1.74306879267453   -3.27707452940638
H         3.66496087626480   -0.21988362551018   -4.35856598851802
H         4.23541208294783   -1.50512836394060   -3.21509971493181
H         2.81081206830113    1.82788445736254   -2.83588987181026
H         4.32726129339913    2.41357218325448   -3.65319766543892
H         3.55706301717601    3.10657453661152   -0.97494012370760
H         5.25645549843857    3.13967260600644   -1.52974193312055
H         5.35095554163013    1.71279417079623    0.36552683576794
H         5.41385093110877   -0.69157829829525   -1.31128428269007
H         6.37043080462296    0.65866315523124   -1.71235206703189
H         0.23345052702859    0.32070902873096   -1.47030982873162
