33
 energy: -44.343417997055 gnorm: 0.131639725787 xtb: 6.4.1 (79825abcba525fcdf90b791dcacef51065a7a4e7)
C        -0.17299761389579    1.72841560923781    0.52440260437731
C         1.16789088196502    1.18748306387555    0.09985137957398
N         2.30632203211308    1.63998243098082    0.53044989446605
C         3.41356843321122    0.86572271613753   -0.09568864433183
C         3.28658087476184   -0.56324807454793    0.50585690217250
N         2.91248810238982   -1.38949620484337   -0.71009111771632
C         1.93204877009607   -0.81062392057948   -1.33890598865985
C         2.00733276228552   -0.97391485300117   -2.86061326104298
C         3.45228097597058   -0.45488105943231   -3.25362846254541
N         4.42307980991851    0.57656376891963   -2.78728392526108
C         4.21549205569892    2.03121167375894   -2.81379890295701
C         4.57487022277658    2.63635320476195   -1.43711973892743
C         4.77563607587791    1.41914514281009   -0.52774769475167
C         5.29103289271105    0.41170850985574   -1.60292771312094
N         1.04605210473672    0.14602402014689   -0.81884502409399
H        -0.84322847850723    0.93320777025837    0.83251945393917
H        -0.62395321167553    2.22179260750314   -0.33876350357930
H         0.02293248007652    2.32056005342303    1.43615101103311
H         3.01387511500753    0.86046488365912   -1.08113935353375
H         2.58248908563996   -0.60168407158542    1.34753871743816
H         4.24944126847707   -1.03053135971097    0.73754866151777
H         1.30474022272226   -0.33578508464136   -3.41069546842755
H         2.03811303844757   -2.04245214623489   -3.09750776579582
H         3.43460620603283   -0.20051516044559   -4.32471123864419
H         4.11748084982375   -1.32553078353800   -3.19023412009088
H         3.20098512980050    2.29284187320196   -3.13567283327089
H         4.88051735465073    2.36713531767462   -3.61706321777181
H         3.77744480977207    3.25600623024729   -1.01678807369345
H         5.50709981762910    3.20986582033728   -1.35081107245754
H         5.53742407794855    1.59210410871194    0.23734240740430
H         5.25156585191473   -0.60419668858246   -1.20150694308975
H         6.28767024246549    0.55205738902253   -2.03747797739794
H         0.16576345975734    0.16256876428548   -1.33412105081710
