33
 energy: -44.341157850427 gnorm: 0.116356885192 xtb: 6.4.1 (79825abcba525fcdf90b791dcacef51065a7a4e7)
C         0.00602507967307    1.82205263437128    0.36834763314453
C         1.30572234824304    1.10897492787038    0.09790183027389
N         2.41988847466687    1.58065320956883    0.56944153170965
C         3.51500444722029    0.75163355505831   -0.00585803311692
C         3.27799727847382   -0.69998215442079    0.50067906555418
N         2.78157023191665   -1.49541538555280   -0.69180033119245
C         1.97278604662919   -0.80101451849066   -1.43707753761887
C         2.05037771286308   -0.89697871549531   -2.96439381994282
C         3.43361148944607   -0.30605102610700   -3.46359433222561
N         4.24011166058946    0.61262410405693   -2.60954543290129
C         3.98369147483772    2.05940516451913   -2.58005814744562
C         4.55030527000687    2.60553377744353   -1.24916115343259
C         4.86066516142461    1.33673612494869   -0.44748218681898
C         5.22334747346483    0.29612424322531   -1.55299698682934
N         1.11804746428721    0.19395408320376   -0.93698932793120
H         0.17685934135538    2.65014501764247    1.04774411270512
H        -0.72264961345858    1.04962452133076    0.62177523547954
H        -0.22029232665895    2.19832662378292   -0.64531262809564
H         3.21750723576306    0.69267425800345   -1.02512968725526
H         2.61638977833867   -0.68875819830688    1.37692126199805
H         4.19816983962671   -1.17551215498326    0.85605006565943
H         1.23257343769906   -0.32210686657233   -3.41622878764186
H         2.03140973400589   -1.96430544414509   -3.20789381254075
H         3.28691622095413    0.30984300647972   -4.36436497842715
H         4.11619689622018   -1.15731095270798   -3.58180750458751
H         2.90849878467397    2.27029688561205   -2.60767794462635
H         4.40090451514435    2.44954919115493   -3.51496874199126
H         3.77544662306766    3.21730291936483   -0.77813199717386
H         5.32642647667466    3.35534135827660   -1.45125614841223
H         5.64113516410855    1.61324318074575    0.26666699217830
H         5.13833175767148   -0.74734727162985   -1.23883273341192
H         6.22751676070521    0.37265835926760   -1.98613012592216
H         0.29495127514710    0.39213758881170   -1.50613532769167
