33
 energy: -44.339132676170 gnorm: 0.105464338536 xtb: 6.4.1 (79825abcba525fcdf90b791dcacef51065a7a4e7)
C        -0.20825104771548    1.74407135994122    0.47402274576894
C         1.15256043565689    1.23838617554468    0.06990853871069
N         2.30878159589737    1.71898963106104    0.41395674934222
C         3.39637216792575    0.82747367730707   -0.07580666499722
C         3.41579087809534   -0.62965777429000    0.46855648153534
N         2.92374919037382   -1.43244832488663   -0.72080606318820
C         2.02216153219997   -0.74372209475452   -1.35685512452061
C         2.02615689705501   -0.62288521325449   -2.88437176499515
C         3.55118212743692   -0.46495631129925   -3.28573055868964
N         4.48219442405281    0.61261577967849   -2.84316921127555
C         4.01863652148758    2.00306240393309   -2.73561218709588
C         4.66523970132145    2.60459654281470   -1.46649616657680
C         4.74574440651525    1.39314816472207   -0.53120384694349
C         5.19899321426508    0.33159971424494   -1.58203919345123
N         1.09434118359933    0.06831573643270   -0.68575697805888
H        -0.98417014541145    1.18036217340234   -0.03261559908528
H        -0.44672002240774    2.79904554495905    0.32570030225813
H        -0.24756170292493    1.56947228273568    1.56410468309354
H         2.98857929193888    0.70200509387416   -1.04990014001312
H         2.78357023953979   -0.77007091110398    1.35525375890060
H         4.40471062603055   -1.01797785210149    0.73384899774242
H         1.40293269893487    0.15608967542450   -3.34068966311443
H         1.78907568144334   -1.59281934084538   -3.33365859731161
H         3.57941542187214   -0.41021181795950   -4.38502062207590
H         3.94565215360990   -1.41370707198338   -2.89997668488925
H         2.92446928282279    2.03382044446215   -2.79155404193879
H         4.41618505821645    2.50805249814958   -3.62289853958270
H         4.00363966484941    3.39400893487066   -1.09819012936252
H         5.70083212159643    2.88455206776728   -1.70014369416266
H         5.50832721842499    1.55404710864997    0.23572353628676
H         5.11361853189043   -0.71950258125773   -1.29454174445827
H         6.28304192286890    0.44777906694897   -1.69674971503288
H         0.19256993944922   -0.26920297229644   -1.02277471066278
