33
 energy: -44.342553839473 gnorm: 0.125461320718 xtb: 6.4.1 (79825abcba525fcdf90b791dcacef51065a7a4e7)
C        -0.01533706003868    1.96955476067068    0.65179292007925
C         1.23979656103696    1.33607850768756    0.10940824503972
N         2.32415541372726    2.04716554682746    0.17809113209310
C         3.46920081205664    1.29289413334825   -0.40282868772526
C         3.82532041802442    0.20847520073631    0.65412675515207
N         3.23948752301466   -1.05674973944028    0.05649257137621
C         2.19836236989467   -0.86624320201848   -0.69950227434307
C         2.25136755261928   -1.48478915275566   -2.10040054935262
C         3.68955209171467   -1.22293285709180   -2.71260058892635
N         4.22772691074324    0.16273359819571   -2.83135410689717
C         3.34577610652982    1.25413970010101   -3.26815126824819
C         3.94889236429502    2.45759391665182   -2.50753099676949
C         4.59550429475461    1.93418559378618   -1.22036486386809
C         5.24169257627191    0.68078779146171   -1.88969974349935
N         1.19022680163755    0.09449247710461   -0.52264528207725
H         0.32227686888713    2.78851626273784    1.27774803586127
H        -0.48959718274486    1.30398657474450    1.37562568114283
H        -0.75342821077606    2.04341390989178   -0.16678821473689
H         3.04097923212574    0.70390669770191   -1.17782260467353
H         3.40655081907514    0.36938006479989    1.65632059692781
H         4.90101914464043    0.07053233477868    0.80571464473392
H         1.47155699326774   -1.11475067999748   -2.77745544598619
H         2.14007917423348   -2.57364842796838   -2.12936169003123
H         3.74804024221456   -1.72855367973303   -3.68889943690201
H         4.49082073446787   -1.59914531998683   -2.06377595610948
H         2.26792999443805    1.12838522728480   -3.11416729067365
H         3.64115695390071    1.35431971878632   -4.31841362910050
H         3.26799721088692    3.26868583074781   -2.23358288058294
H         4.76409883462915    2.91040840545200   -3.08702679159190
H         5.22475814627582    2.69113929431827   -0.74427735516545
H         5.47264920913014   -0.08364169479348   -1.14333103305348
H         6.08999777564977    0.93216952001700   -2.53700435947061
H         0.33103518628057   -0.04598039741751   -1.05438614085095
