33
 energy: -44.344682824986 gnorm: 0.137115123935 xtb: 6.4.1 (79825abcba525fcdf90b791dcacef51065a7a4e7)
C         0.02835926212430    1.96845439962303    0.51007468038105
C         1.25913213947828    1.25751807855224    0.00947367615062
N         2.28537567574423    2.05164424379835    0.05830055226889
C         3.47514690891948    1.29014468585948   -0.41295839834278
C         3.76684832470931    0.28468736228584    0.73765285473314
N         3.30839899433642   -1.01539819506943    0.10459464365030
C         2.21979912677361   -0.96086186611847   -0.60515082742100
C         2.30539574259335   -1.61697114537679   -1.98722116184981
C         3.59933993022479   -1.15183658822650   -2.77531418506290
N         4.19996757486027    0.20654664921374   -2.90890847067425
C         3.49890937622616    1.42640865954336   -3.33346743432961
C         4.01387302443419    2.60418819485031   -2.47425717652350
C         4.60661886717184    1.88849786479089   -1.25552848361920
C         5.20761490087310    0.60159085213770   -1.90302259891010
N         1.15349718824298   -0.09121611512389   -0.32704081173716
H         0.16736887802911    3.03816350862212    0.62365131611369
H        -0.21854665541511    1.62396908946746    1.51615861164149
H        -0.85749939281206    1.87307697156073   -0.14296925153811
H         3.05078087408725    0.63767652932576   -1.13759228072389
H         3.20881453880179    0.46298818633734    1.66633900088430
H         4.81386223982801   -0.01472002935973    0.85276996745627
H         1.30648159592623   -1.39269992220641   -2.38131410459504
H         2.34416894829842   -2.70997569455174   -1.93549057215400
H         3.36538196249257   -1.41548961360169   -3.81837864469109
H         4.45265016475753   -1.76361608012721   -2.45573924720200
H         2.40670046551290    1.42914926529358   -3.24209090041190
H         3.79635971289578    1.58029655687638   -4.37662548224494
H         3.26105224850636    3.35644296650079   -2.22145387874582
H         4.86386407181951    3.05417150584752   -3.00383074423148
H         5.27962680021784    2.55684696629317   -0.71149867801691
H         5.39080541675580   -0.21443345481449   -1.19924335946589
H         6.06119343195580    0.94075924198306   -2.50150922542772
H         0.19192271114219   -0.38340722356724   -0.50222663182110
