33
 energy: -44.341241419273 gnorm: 0.129356872918 xtb: 6.4.1 (79825abcba525fcdf90b791dcacef51065a7a4e7)
C        -0.05552468935077    1.83560562839750    0.35700037115468
C         1.30867080433328    1.35275930702747   -0.06331354039762
N         2.33171030810281    2.11907431927843    0.16548265070923
C         3.53615289302467    1.38529731925973   -0.31244154289215
C         3.83084658540011    0.33519898530630    0.79678770145990
N         3.40856763911858   -0.96198225968108    0.13334045615195
C         2.34937812268819   -0.92988832130310   -0.62088103644459
C         2.32097548279268   -1.75969419234175   -1.90872423011410
C         3.34004045682795   -1.06910081850047   -2.90688239305437
N         4.07772757480430    0.22404892104443   -2.82093185425943
C         3.36767645546977    1.44790838685389   -3.21816183820961
C         4.11857894526367    2.52279783875880   -2.39880075700153
C         4.72378561689200    1.83958598470304   -1.16761987769841
C         5.17799491343609    0.52862767028290   -1.88292172270447
N         1.32235867086901    0.00805984277147   -0.43084675586192
H        -0.11730059025976    2.90149872967018    0.54819801821344
H        -0.47312485221901    1.28897239341157    1.20472659087972
H        -0.79588373319840    1.71954322198924   -0.45460716809348
H         2.99946565291183    0.83067683799166   -1.04405511658293
H         3.17369802874593    0.52200450045207    1.65638663248445
H         4.88149659202296    0.34196985994485    1.10537089476097
H         1.37367341224606   -1.65687281489904   -2.45230757786069
H         2.54394808984676   -2.81660948580683   -1.72969451216123
H         2.88208169828857   -1.03601038978817   -3.90758790090392
H         4.17633121556640   -1.76679461190610   -3.04246184099620
H         2.29916861722835    1.39753362314891   -2.97935046134536
H         3.51015734532034    1.59491695200203   -4.29446318035389
H         3.42091003833635    3.32143790613263   -2.13053221462150
H         4.82553600911624    2.95831983863593   -3.11709750747260
H         5.47505618638668    2.42681208021371   -0.63249683563941
H         5.50409540787637   -0.27812633000562   -1.22143393008168
H         5.98355634879522    0.72437535673555   -2.60025801981644
H         0.43314754709030   -0.33808811780617   -0.79164637333029
