33
 energy: -44.344918508966 gnorm: 0.135898286660 xtb: 6.4.1 (79825abcba525fcdf90b791dcacef51065a7a4e7)
C        -0.01249239699124    1.93569643383553    0.32838484202243
C         1.30858566395156    1.29324398601446   -0.00753379244541
N         2.32503288969262    2.08894333235800    0.13351170407478
C         3.50826531270743    1.32504049199271   -0.35015725055210
C         3.83096149834729    0.28156386507347    0.75752686962514
N         3.46718308553372   -1.03466938480456    0.09695419450104
C         2.38611744207562   -0.88399881407625   -0.61040568027097
C         2.23211501687803   -1.63282010039044   -1.93836447432342
C         3.45096654825635   -1.14472055085996   -2.82599736462631
N         4.05045575231895    0.21991751337201   -2.77928879223985
C         3.42563011102334    1.43679938081360   -3.31649237171352
C         4.04433856913944    2.55525672179628   -2.44652255354803
C         4.64720061726232    1.89890081257743   -1.19968087044870
C         5.15370024957817    0.58083388187111   -1.86506212413589
N         1.28541213981468   -0.06923947109127   -0.30178968124864
H         0.13117921722582    2.98491390404705    0.56291006616260
H        -0.39658022858269    1.39970808324630    1.19845987828200
H        -0.78973801171653    1.84979412684835   -0.45188359967815
H         3.01419806676059    0.79616060932570   -1.12931007276313
H         3.16902839304666    0.31899606202052    1.63279497030057
H         4.88919899572585    0.12652552576456    0.99254046331154
H         1.29332811035371   -1.41116268803047   -2.46084265268933
H         2.38608969605031   -2.71683123359460   -1.93129103186502
H         3.06576365794331   -1.41309668590504   -3.82190182875858
H         4.26956020994322   -1.82113807339630   -2.54868092695159
H         2.34832051788518    1.35098978473893   -3.13395950829508
H         3.69650760305570    1.51807992990817   -4.37496096282008
H         3.21599560572786    3.24595279357450   -2.26397737359279
H         4.81271666024986    3.14396320611173   -2.96463229917776
H         5.29032716681405    2.56407298275851   -0.61698639125662
H         5.36074193386394   -0.16456055726695   -1.09287009799171
H         6.02063868325561    0.82829794327468   -2.48875839424126
H         0.49141523162426   -0.29044201611136   -0.90289662640524
