33
 energy: -44.348517225471 gnorm: 0.113654058788 xtb: 6.4.1 (79825abcba525fcdf90b791dcacef51065a7a4e7)
C        -0.01616217955802    1.92156513408952    0.53846602218104
C         1.27711073552220    1.33504242951329    0.03421412674365
N         2.31486010701453    2.11559487413150    0.03743069242948
C         3.52927017658142    1.34400228627598   -0.34646410532039
C         3.75923798607065    0.25766540096983    0.74299785967574
N         3.42739446847445   -1.04652783977808    0.04291156257832
C         2.31039279839664   -0.89991517473572   -0.60714575889274
C         2.29414510242613   -1.67269507258666   -1.93019974542990
C         3.51581229754189   -1.15755930112095   -2.79847203691962
N         4.07510575384932    0.22106484762819   -2.90041482600556
C         3.35979313464777    1.44876567477412   -3.27574772536072
C         4.07997342012673    2.55525865532658   -2.47100670850679
C         4.66465480841341    1.83914532878376   -1.24863635309446
C         5.16698856570372    0.54278126918108   -1.95833737572792
N         1.26035616524057    0.00197779958084   -0.37339187518997
H         0.07104568140953    2.86138896709947    1.07290671377385
H        -0.68069034853201    1.18930722868164    1.00110865405098
H        -0.66393941769344    2.15323317504302   -0.32583911087050
H         3.20182176409608    0.68865682397870   -1.11730478671059
H         3.05936017469202    0.45336686008328    1.56611561469614
H         4.77833129215581    0.30805291688334    1.14054634998454
H         1.44119546120255   -1.51586108533011   -2.60200054735486
H         2.45957706442356   -2.73345652107874   -1.71512815737020
H         3.28234325998859   -1.46630708512725   -3.82919980674531
H         4.38818113259967   -1.70326409814128   -2.41673973790845
H         2.28817567344382    1.40926795654589   -3.04913475178222
H         3.47052582727397    1.58674019136685   -4.35696842733526
H         3.43692587565026    3.37243857007467   -2.13153253763405
H         4.90210182128176    3.00859908356678   -3.04022131869748
H         5.36021770285559    2.51341699682130   -0.74153813225415
H         5.32711452333238   -0.23164604686940   -1.20376354536808
H         6.06120939166049    0.79135625073511   -2.54177318261445
H         0.36417191517753   -0.28469244714841   -0.76755574569934
