33
 energy: -44.347790436143 gnorm: 0.115325759457 xtb: 6.4.1 (79825abcba525fcdf90b791dcacef51065a7a4e7)
C        -0.10929182970618    1.91057129375870    0.50766568026657
C         1.26229540935918    1.38134425499721    0.17675647595667
N         2.35612929356437    2.07587539409199    0.26248962117988
C         3.48796495920305    1.32915578605329   -0.35304268597744
C         3.87473357789157    0.25988466817886    0.70856445639537
N         3.41318847536421   -0.96556507302994   -0.05720966772932
C         2.29984745249719   -0.76724079937459   -0.69978401370889
C         2.24602971783917   -1.49397264841445   -2.04770430235915
C         3.62784004756712   -1.26179379468807   -2.78826191103132
N         4.26430003704693    0.08307364490705   -2.88854304925555
C         3.47625045594624    1.25775171587430   -3.28717263018320
C         3.85598280739742    2.49518013884081   -2.44149615238242
C         4.60087700934902    1.87031198565632   -1.25678845261006
C         5.20450393541250    0.56024444363129   -1.85338889970340
N         1.24939997343508    0.11986354958538   -0.41652663364343
H         0.03755342042394    2.94861180214210    0.78589093280763
H        -0.41700321154647    1.42696073483083    1.43679003985612
H        -0.86987366984226    1.68194415461228   -0.26015831604785
H         2.95863694361603    0.88288643919518   -1.16022978676235
H         3.31691596576399    0.50178168120166    1.62288179701138
H         4.95728412316429    0.10749245726749    0.77177686751622
H         1.45831897251835   -1.06589868275511   -2.67992323628418
H         2.01310041270063   -2.54463399508720   -1.84597911150834
H         3.42495758986248   -1.72582068177335   -3.76588682787985
H         4.33361177497764   -1.92785720376087   -2.27563489258388
H         2.39661619657795    1.06914261689628   -3.27747891690053
H         3.67342337117394    1.51549629413023   -4.33360823630743
H         3.00356233107102    3.09704967599227   -2.11336772674561
H         4.52849664730540    3.18418321226531   -2.96914928232003
H         5.37712367589838    2.52447468646329   -0.85045004209848
H         5.48627136545519   -0.15854100900101   -1.07962262789977
H         6.11445893988777    0.77063944394911   -2.42743905767255
H         0.37817177917191   -0.04354646166588   -0.92145218065114
