33
 energy: -44.342283706048 gnorm: 0.119542096572 xtb: 6.4.1 (79825abcba525fcdf90b791dcacef51065a7a4e7)
C        -0.02278679958768    1.88148342745251    0.49997958510787
C         1.22905126914525    1.13000508974881    0.12713180224971
N         2.38078312762923    1.56244683956835    0.54270862624100
C         3.50235598343383    0.80370563438740   -0.07689469228868
C         3.43321698769231   -0.62543878234969    0.53360217913469
N         2.72453263486509   -1.39644700015694   -0.56388301598041
C         1.97650759057026   -0.74535857987729   -1.40549154722132
C         2.11489401277051   -0.97629227933739   -2.91394884055001
C         3.53809408586872   -0.49693663199997   -3.42035979002328
N         4.32074575207986    0.54792804086594   -2.69958228933474
C         3.94761753254391    1.96935437791272   -2.71047886635011
C         4.33772301059341    2.59421010529289   -1.35107918495534
C         4.83893059522205    1.40561994126574   -0.52348974052021
C         5.27971191025382    0.35644656547087   -1.59190987170684
N         1.12838473846856    0.28935044707514   -0.98041084403748
H        -0.78270672474687    1.70735680964870   -0.25414410505232
H         0.26200142039902    2.93176129259458    0.58744167830950
H        -0.42758820719906    1.47376786915732    1.44349039121839
H         3.10634113876999    0.71394906723064   -1.05975352901074
H         2.86284147168866   -0.66890946290352    1.47084970067350
H         4.36240366489286   -1.18540714204967    0.68253983175714
H         1.27156583134417   -0.50798926834107   -3.43637220330105
H         2.07548965782694   -2.06189864458780   -3.05085933351541
H         3.50473687635296   -0.21575846521873   -4.48434232752928
H         4.29048758848564   -1.29079055215380   -3.32958193249370
H         2.86539579846588    2.07380627826769   -2.84891082594401
H         4.33277929571289    2.58231396547046   -3.53283393329544
H         3.47839768233916    3.05413844516881   -0.85452931549842
H         5.06465119497233    3.39177872014255   -1.55326138389214
H         5.64209643375448    1.60889986725513    0.19009314291067
H         5.08674415481016   -0.63130522240595   -1.16544826358215
H         6.30648071688308    0.50288869334654   -1.94704120282134
H         0.37494722856292    0.58574565251957   -1.60103391621940
