33
 energy: -44.338679660996 gnorm: 0.123086103857 xtb: 6.4.1 (79825abcba525fcdf90b791dcacef51065a7a4e7)
C         0.06170415439398    1.98210992642624    0.37893778296980
C         1.28627488171863    1.18549207940303    0.00926190946852
N         2.43310686511553    1.58486048483242    0.46912875950077
C         3.47431284801848    0.68885368367636   -0.10583566737920
C         3.29460804756353   -0.72089229661273    0.52682764404763
N         2.85312807742840   -1.52243225211162   -0.68304428828965
C         2.02468527901972   -0.79610405730433   -1.37434191923140
C         2.08525631982737   -0.91325166496868   -2.90094999144212
C         3.60170888768560   -0.59070476915234   -3.22968620215406
N         4.31727681532115    0.63588981261657   -2.77445622433355
C         3.73345057930906    1.96586794254839   -2.55062289832974
C         4.40431019118989    2.60382090737350   -1.31225386443292
C         4.79276681587495    1.35678991320378   -0.51045896026717
C         5.31797647685640    0.48945981561602   -1.69724783919562
N         1.10478879561855    0.16175564498838   -0.91945290803152
H        -0.77025696981072    1.31500970201472    0.57722769236875
H        -0.25508208084110    2.66419396556786   -0.41241889060707
H         0.31538626791706    2.65745731986764    1.21551418625641
H         3.05555124821515    0.57448399746339   -1.07663626079546
H         2.46747786844818   -0.58005496114549    1.23511527323231
H         4.18460205732291   -1.08762230631254    1.04889529775907
H         1.48554684318692   -0.16098937935883   -3.42809922076973
H         2.05784759647985   -1.92645866403879   -3.31507401942838
H         3.82392565802616   -0.51712689924770   -4.30552946624214
H         4.12904574568976   -1.46648271909957   -2.83034990311288
H         2.63757573695677    1.96272141092285   -2.53256955140599
H         3.98541014132923    2.57377650267057   -3.42657978496898
H         3.64180886592244    3.25178196423888   -0.87035560545159
H         5.32767770878701    3.19489312020899   -1.37093940507403
H         5.53678647271235    1.50007958827131    0.27789467423169
H         5.43161871530858   -0.57437645112384   -1.47342313587424
H         6.17469028085983    0.98677904537449   -2.16685703247402
H         0.20375400892278    0.33393278051664   -1.36575162819309
