33
 energy: -44.338568005259 gnorm: 0.123844254004 xtb: 6.4.1 (79825abcba525fcdf90b791dcacef51065a7a4e7)
C        -0.11124363310978    1.89469657369475    0.65436812247509
C         1.16741101219862    1.39064981226467    0.03645804650270
N         2.23905700911183    2.11683221762822   -0.06567034422720
C         3.44193206064722    1.31505796983439   -0.42312219607601
C         3.80169801364370    0.29670668979294    0.69646234007963
N         3.40544353569307   -0.98015069327713   -0.02032115016169
C         2.26468508062343   -0.81274084684505   -0.62232333124448
C         2.25383115161314   -1.38947404694869   -2.04189567251663
C         3.68014629375673   -1.25218380509104   -2.71902850743089
N         4.25727455602008    0.10673759091536   -2.92893721198893
C         3.59417691835292    1.33858359433170   -3.37910740438634
C         4.00402408837145    2.49806503850439   -2.44197211818460
C         4.64436857837447    1.83945216341874   -1.21516816919360
C         5.19946782994061    0.53873671754036   -1.87590917381505
N         1.19321719950896    0.04588131521528   -0.33017041357976
H         0.01694791606796    2.95191605051185    0.86017097675984
H        -0.21127326796165    1.43156240626395    1.63790172961622
H        -1.02647312234464    1.62034295205562    0.09993700685368
H         3.06607055033748    0.71945753956150   -1.21991812015352
H         3.09353641852092    0.46506601369789    1.51854089343901
H         4.81538327580815    0.16671032085925    1.08975358658448
H         1.45725941748355   -0.78692673143854   -2.49559880005409
H         1.92492918011003   -2.42874373475839   -2.14475664301291
H         3.65504800548385   -1.64967484074818   -3.74548049032560
H         4.47903690128867   -1.85940084290597   -2.27450413464200
H         2.50619112568585    1.24637770477029   -3.28391032769909
H         3.88513259247784    1.47845130122520   -4.42606429235262
H         3.06916190442945    3.00619212371198   -2.18824897072143
H         4.67866491452025    3.13421461260402   -3.02984234176938
H         5.36285560045496    2.38862611914054   -0.60052762560044
H         5.38350723090783   -0.28973742544362   -1.18705523352943
H         6.05668233112299    0.71798651015181   -2.53535633769293
H         0.27667383501283   -0.33285007786327   -0.56933980202770
