33
 energy: -44.347465815303 gnorm: 0.115175013095 xtb: 6.4.1 (79825abcba525fcdf90b791dcacef51065a7a4e7)
C        -0.10770356595977    1.78303009172870    0.36647398816672
C         1.22112664963208    1.13148298414827    0.08269533368405
N         2.31657506162012    1.61059887179759    0.58928881926045
C         3.41937193087811    0.84764152589504   -0.05821200436675
C         3.34627822840032   -0.59954164585467    0.50770192680281
N         2.97782257791367   -1.41641457578911   -0.71627519743038
C         2.00260849602976   -0.82622716987445   -1.34269265993731
C         2.11369396664418   -0.80896310667845   -2.87085710441980
C         3.58255522920430   -0.47464558101040   -3.36320935763821
N         4.38498851212150    0.66402125886615   -2.83090803357638
C         3.89006281709335    2.03379698467130   -2.63454289292361
C         4.64666822946909    2.61128951661120   -1.41608276216831
C         4.78271647620425    1.39058209348518   -0.49944533770758
C         5.17367930489976    0.37221971803868   -1.61598492979730
N         1.07282717607730    0.09847841221380   -0.84163874630878
H        -0.93597354571180    1.10818544592702    0.55370232010286
H        -0.40698540013898    2.37421434741408   -0.50114868264156
H         0.11682889847384    2.39631900665787    1.25741207731094
H         2.95809943841734    0.77519282768459   -1.01365659543803
H         2.64697434973392   -0.72366995576540    1.34508899105916
H         4.25202638868733   -1.10577727812945    0.85767425025298
H         1.42856441062840   -0.04508991938692   -3.25884106623717
H         1.80271602859532   -1.74452492979942   -3.34715025109513
H         3.50901494397096   -0.33235233322247   -4.45251059075101
H         4.23205425278960   -1.28139734909850   -3.00010708857648
H         2.80836948750899    1.95458559685056   -2.47661066199948
H         4.09799515584780    2.63736907038119   -3.52493706559168
H         4.23478881126192    3.47145321772097   -0.88034997275830
H         5.64107890699322    2.82835500173554   -1.82772326571448
H         5.51874267062457    1.50728358381843    0.30070766715709
H         5.00932774799381   -0.67843863438344   -1.36326918539300
H         6.24463594925094    0.53663210563943   -1.78283270883804
H         0.13934562342982    0.05712699968032   -1.25102052921079
