33
 energy: -44.347852306437 gnorm: 0.117899099411 xtb: 6.4.1 (79825abcba525fcdf90b791dcacef51065a7a4e7)
C        -0.13686838868282    1.76161368255686    0.52765191203809
C         1.11982308832133    1.14855686870377   -0.03423916913625
N         2.23051467003452    1.61246608699036    0.45294528176719
C         3.37154345003482    0.86800356598766   -0.14817953623104
C         3.38838231410511   -0.54796298207243    0.49578909179852
N         2.95008763864804   -1.36908673899705   -0.70204833798722
C         1.98550566550413   -0.83188688222896   -1.38962413243987
C         2.06324585498811   -0.71781599625371   -2.91568734512246
C         3.56162044468612   -0.46113766746533   -3.36370765845463
N         4.42331122283259    0.54323620312792   -2.67630080379519
C         4.00558261321347    1.95224109739340   -2.67836803905840
C         4.68638336134049    2.61150000123563   -1.45669602659703
C         4.75748252044645    1.42779968205851   -0.48579007141001
C         5.29253877801407    0.36392973712102   -1.49498285267021
N         1.01813288382165    0.05788846688089   -0.89655363591656
H        -0.63848995016010    1.04077000260140    1.16425312963690
H        -0.86816309113428    1.97388657264179   -0.25464331186889
H         0.05710942636002    2.65036874444640    1.15438617792796
H         2.98411397120781    0.74020547775292   -1.13024956348519
H         2.67785913945661   -0.64563612623143    1.32721414963646
H         4.25695972425455   -1.07491245974421    0.90448506974903
H         1.42047084693155    0.13144796752524   -3.17841786928495
H         1.74783848417721   -1.60977064228897   -3.46684383387141
H         3.60174371816380   -0.22669215381107   -4.43872307451104
H         4.08629255588018   -1.39914081394736   -3.14142421041276
H         2.93260359030596    2.16741420785241   -2.61758940485859
H         4.35144708879949    2.41691025486778   -3.60831279210362
H         4.16092727005263    3.52180765881847   -1.15375752569033
H         5.70407335498686    2.91476914513610   -1.73553796740562
H         5.49972772915420    1.42734094869373    0.31712366621695
H         5.28752714907563   -0.65614072919635   -1.10231151021925
H         6.32936994118105    0.58298249958871   -1.77572254718439
H         0.08938477493727   -0.17015947008149   -1.25167656503697
