33
 energy: -44.347520106801 gnorm: 0.128449987744 xtb: 6.4.1 (79825abcba525fcdf90b791dcacef51065a7a4e7)
C        -0.04347802799847    1.92397684218575    0.64527610359721
C         1.21015959372506    1.35111288014650    0.03613464944227
N         2.26856475206612    2.09715959599991    0.13303185134480
C         3.43056160248256    1.33246432723087   -0.39850049628242
C         3.78363434290485    0.29821493397711    0.70857142551410
N         3.39747992695154   -1.02490604957697    0.07501275585157
C         2.30045910101220   -0.87508268749907   -0.60752720933428
C         2.27015901757462   -1.41393796029329   -2.04162675929495
C         3.60243184259256   -1.21201529401996   -2.87589812956021
N         4.25597617403353    0.12810595557281   -2.90348244208390
C         3.51935342291548    1.32244401837832   -3.34022008446030
C         4.00905133378240    2.52119471519621   -2.49536081291009
C         4.59611619800086    1.83442085026979   -1.25739618637542
C         5.22916728615896    0.54764933732224   -1.87386996031133
N         1.24403008265321    0.00460770337590   -0.32339463350357
H        -0.10856634554498    3.00526840366569    0.58984165497323
H        -0.19229384137699    1.52028091231166    1.64863097215689
H        -0.85653742228405    1.47628274464026    0.04626590479976
H         2.94032959981576    0.78911084290179   -1.17008008873580
H         3.26103745545197    0.50168674356998    1.65257490425709
H         4.81650442835944    0.20114584175389    1.05913076607991
H         1.41619134462119   -1.06581525758676   -2.63575309813586
H         2.14858305618002   -2.49041827504004   -1.88273119500853
H         3.36622636835238   -1.40125537655092   -3.93449525945031
H         4.37437848362617   -1.90546691747632   -2.51845739208097
H         2.42891127221885    1.26905488038274   -3.24345744398167
H         3.70226973172626    1.38450054277157   -4.41865761921759
H         3.17567804386296    3.14505842489048   -2.15947555761472
H         4.70991732329112    3.16529876618964   -3.04247575502324
H         5.20930463339349    2.57635675845834   -0.73861908401615
H         5.38035694890564   -0.24196642799682   -1.13332402350468
H         6.17517621442077    0.65989124251366   -2.41635185810063
H         0.39177650774601   -0.23273978456035   -0.83135253085190
