33
 energy: -44.347227536699 gnorm: 0.120112414562 xtb: 6.4.1 (79825abcba525fcdf90b791dcacef51065a7a4e7)
C        -0.10629192700735    1.80582790760848    0.44216421916626
C         1.20046085008394    1.16336670137371    0.05425381827960
N         2.33556542604137    1.67642726120577    0.42099989907179
C         3.43845971314471    0.82876132025543   -0.11060973495110
C         3.34551506675143   -0.60640011446416    0.48236020057098
N         2.87947345139369   -1.42710864702560   -0.70524397083262
C         1.98369667916326   -0.78817654347459   -1.39886654157451
C         2.05181073133843   -0.92772744202677   -2.92327154924718
C         3.53532617472085   -0.51676437118512   -3.30013179846892
N         4.25842914753311    0.63243743664205   -2.68347684377619
C         4.08117998292982    2.09077573974175   -2.72382989374066
C         4.58518933825093    2.62239003943978   -1.36222963396252
C         4.81538993246921    1.39283490144507   -0.47675701508759
C         5.22749700838834    0.38555054338210   -1.59573891977304
N         1.05772003391223    0.11510142627579   -0.85362814092640
H        -0.49665142260363    1.14286559709999    1.20675649887898
H        -0.74699601417105    1.95122479236776   -0.42972772028937
H         0.08973891718665    2.75860823471349    0.96570060814342
H         3.12872136383973    0.74399719605021   -1.12440098080978
H         2.60955628827913   -0.62497155955849    1.29702002307316
H         4.20380205870711   -1.14079326553731    0.90295771432990
H         1.25717860935465   -0.31990999747694   -3.37333160395094
H         1.83481640339634   -1.97692064176590   -3.14898256756017
H         3.48876377513779   -0.28674024863591   -4.37584252339399
H         4.12625251443533   -1.40716509734017   -3.05006528804109
H         3.03736095134770    2.41192918666514   -2.81645700566943
H         4.70611734251027    2.42512635632778   -3.55929375492189
H         3.92957053871696    3.18531448845620   -0.69154645500403
H         5.49453816982277    3.20375905069260   -1.56350729925477
H         5.59892602127995    1.49872984924940    0.27852841720632
H         5.16710169413233   -0.63841023506995   -1.21809307371584
H         6.20298828358113    0.65400011748480   -2.01784002797163
H         0.17801611823354    0.04485600757885   -1.36536811529346
