33
 energy: -44.342066177728 gnorm: 0.116305773730 xtb: 6.4.1 (79825abcba525fcdf90b791dcacef51065a7a4e7)
C        -0.12241332025128    1.78864577685861    0.54901432710122
C         1.26107164775686    1.41784422946962    0.08070965565585
N         2.34038271390026    2.12213680080849    0.23963048508714
C         3.45900552157288    1.36515598141686   -0.38741434613930
C         3.82210631442353    0.30831905274237    0.69480279127311
N         3.34477127662302   -0.93178295416755   -0.03694800514480
C         2.27104354471852   -0.75426160548857   -0.74923830320999
C         2.23316583090642   -1.54141771828638   -2.06334452276282
C         3.57396264474899   -1.19092360815689   -2.83220742079886
N         4.26723627047136    0.12822404915368   -2.88722733792449
C         3.43609679694052    1.29280644410271   -3.22301190957361
C         4.02284278448607    2.49489970860726   -2.44757951506632
C         4.65762300652939    1.83289740094988   -1.21970862216279
C         5.27212503345969    0.56804842202655   -1.89729170949585
N         1.22206553072926    0.12939234480910   -0.45019049329752
H        -0.20259824500929    2.85434606969595    0.73436311718345
H        -0.41795323341045    1.32323819305899    1.49129320153109
H        -0.95166679081614    1.47219828002285   -0.10863942183084
H         2.91798633276009    0.83034563178352   -1.13049685800522
H         3.30443313644641    0.49288706523649    1.64538155274249
H         4.88727394478479    0.27465666111008    0.94663534681821
H         1.32698705850984   -1.24563011696974   -2.60628654742148
H         2.25396697795898   -2.59563557020788   -1.76833534713135
H         3.35305094125328   -1.46791359379682   -3.87465995694926
H         4.40489973670685   -1.73361531973310   -2.36362454357440
H         2.36311970763990    1.20282380626113   -3.01831509855082
H         3.53128085931577    1.38562710963996   -4.31051419681305
H         3.35927549520411    3.34889620927504   -2.28355420797615
H         4.84170793688927    2.77593988883898   -3.12277889771698
H         5.34715105807827    2.44001004775741   -0.62678035340101
H         5.52774578107027   -0.23763997466172   -1.20426653301928
H         6.22273305052086    0.74887606328477   -2.41252322083736
H         0.30343302314615   -0.21864061899050   -0.72528788923456
