33
 energy: -44.340077274718 gnorm: 0.126674171343 xtb: 6.4.1 (79825abcba525fcdf90b791dcacef51065a7a4e7)
C        -0.00543323254200    1.85504468882089    0.58580252848902
C         1.32358632832760    1.30592925598120    0.13523293726643
N         2.34234717865675    2.11056697269315    0.16490957379760
C         3.49125022786546    1.30719439595064   -0.33722233664174
C         3.75236364293303    0.22395919678494    0.74830135751821
N         3.23514501048923   -1.02033642235613    0.05161330376755
C         2.28612952247875   -0.80951689649527   -0.81249736408263
C         2.30890671899581   -1.53597934828599   -2.16144438743340
C         3.57125232800053   -1.11017998870807   -3.01987948049074
N         4.19358943747759    0.23280545667250   -2.83851617853011
C         3.39452334821913    1.40458960364646   -3.22349870109651
C         4.00764703267762    2.51730527695125   -2.34228496922459
C         4.68015074550241    1.84729140351278   -1.13908919218673
C         5.20486378770950    0.53661616242014   -1.80495791560453
N         1.23301172099359    0.05248211799899   -0.46821647735300
H        -0.59775074393630    1.15902336159817    1.16993879995139
H        -0.54752785180974    2.13505967077360   -0.31949442673054
H         0.26035102612617    2.79301978686381    1.10529289801877
H         3.06469989684281    0.75290741322864   -1.13829427302057
H         3.26568394669848    0.33634998857399    1.72613673768107
H         4.81082456229229    0.02387049218854    0.94517661251161
H         1.30854092532588   -1.48822186702702   -2.60913155312437
H         2.52919575608481   -2.60730621758450   -2.11075082589730
H         3.24461903821082   -1.09906136432790   -4.07126893420690
H         4.24419996131973   -1.96365303598907   -2.86734788526934
H         2.30256501264658    1.31313100951173   -3.20026495462407
H         3.57497804730420    1.58036508455073   -4.28974256857556
H         3.28253590992481    3.29039515372168   -2.07194856210101
H         4.69687246663855    3.07933163038719   -2.98611150154499
H         5.40771095365510    2.42385285978957   -0.56130752123661
H         5.25843346864192   -0.22703297537470   -1.02474644716251
H         6.20907945158030    0.66426855181589   -2.22575895146788
H         0.26819186930270   -0.14243817434421   -0.73620886762929
