33
 energy: -44.338465188154 gnorm: 0.136404648080 xtb: 6.4.1 (79825abcba525fcdf90b791dcacef51065a7a4e7)
C        -0.19924790327852    1.74075620912241    0.62594064129205
C         1.07394701132346    1.11899847410618    0.11288534707300
N         2.20172824511213    1.66402975746638    0.45529830407621
C         3.32194014629608    0.89638770221478   -0.15574436304768
C         3.36743847986232   -0.53193251921600    0.45888695676320
N         2.93699762828998   -1.40857749048147   -0.70187797709746
C         2.01381753255531   -0.76639567368879   -1.35540958727869
C         2.07066144469770   -0.91324689985804   -2.87959071567017
C         3.51686650198630   -0.46542464501847   -3.34828948830972
N         4.30617335640600    0.58473117379601   -2.64261711317430
C         4.19204920717191    2.04247401421321   -2.79012218445885
C         4.63502767962283    2.62781840242141   -1.42933693815016
C         4.72356019749403    1.39857327274266   -0.51830548010865
C         5.25196811233202    0.33808022940891   -1.53453090297078
N         1.04119247396943    0.10947699054128   -0.84798832446947
H        -0.92958755354243    1.08341248981224    1.08529250490679
H        -0.62539228299433    2.18078058405468   -0.27772802725654
H         0.19858191798161    2.48239623964801    1.34148959192683
H         2.98832481452323    0.82169121751899   -1.16272834398866
H         2.84583268628334   -0.61860398184285    1.42121034614657
H         4.40489926692321   -0.86791291578539    0.55852213410833
H         1.34953135777172   -0.26612170452026   -3.39401922768416
H         2.02219431497211   -1.98496419684020   -3.09847733454081
H         3.54811765857808   -0.13454527402858   -4.39794415924677
H         4.18131274280535   -1.33764174778563   -3.30044414673267
H         3.22995677854899    2.23522579174369   -3.27848926487302
H         4.91392055836431    2.22710450012704   -3.59333463598427
H         3.93300296178012    3.41235265800736   -1.13234675469719
H         5.60479166889777    3.13981484205629   -1.37608868913652
H         5.41055252641673    1.51358243323705    0.32455457158611
H         5.10011014554410   -0.68832150918112   -1.19073112491749
H         6.24745509497637    0.52369363433202   -1.95449647496405
H         0.11523569715324   -0.03821981256530   -1.24983519435199
