33
 energy: -44.345064030381 gnorm: 0.124006003230 xtb: 6.4.1 (79825abcba525fcdf90b791dcacef51065a7a4e7)
C        -0.11684899648426    1.66490669110454    0.75865706146381
C         1.14402987735162    1.21607829677800    0.06614622652850
N         2.31014564806790    1.65996593664880    0.42577661046496
C         3.35183519500877    0.80993070985126   -0.21441490289437
C         3.37328888566031   -0.62211503019188    0.39281252265586
N         2.76292782487923   -1.39588924778431   -0.76039768964344
C         1.85585478535950   -0.70730910089618   -1.38875938638858
C         2.06876038677894   -0.73374352153967   -2.90595978201464
C         3.61687505764512   -0.55523971040127   -3.19442071987886
N         4.55496251968224    0.53331393320917   -2.79586217265220
C         4.18731330879631    1.95475224143849   -2.86023173043045
C         4.49368019801998    2.58923274956608   -1.48394386918452
C         4.72561118164761    1.40852254740257   -0.53473822652540
C         5.30543535149616    0.35974160234007   -1.53495669517788
N         0.91392042304023    0.16322206393037   -0.81817729938034
H        -0.39561810692181    0.70670322951750    1.18366862576364
H        -0.89088105565331    2.12718833168134    0.14302113628955
H         0.16960591202700    2.38410524319810    1.54669629070350
H         2.96043392046078    0.79977036111344   -1.20315010547248
H         2.75079540652660   -0.69737196274585    1.29419430316474
H         4.39267818144883   -1.00287640323106    0.51529156833856
H         1.56951759096516    0.10695235733918   -3.40337648864650
H         1.75563359741489   -1.67767136494372   -3.36398839324942
H         3.65336512570228   -0.51923522305987   -4.29424110126029
H         4.10552468528553   -1.42450563847779   -2.73601157717570
H         3.14310524831640    2.18968059861420   -3.09627342850127
H         4.76349379751532    2.45678455559044   -3.64529000977060
H         3.77671918832935    3.33456315533028   -1.12759380593084
H         5.47847978134081    3.07452915274339   -1.49261033494251
H         5.21136828355188    1.70492541320288    0.39895552018273
H         5.23369837134568   -0.66701045177839   -1.16699789410063
H         6.34234222536416    0.67212703757827   -1.70541848618119
H         0.20943615590663    0.38097885421744   -1.52314191570197
