33
 energy: -44.341002371730 gnorm: 0.127420435635 xtb: 6.4.1 (79825abcba525fcdf90b791dcacef51065a7a4e7)
C        -0.04119766560149    1.83566055655071    0.67784859208148
C         1.23208324539853    1.19980335525842    0.18259608986029
N         2.33061040079092    1.85855943515038    0.39584418388028
C         3.42229145762686    1.14980934051774   -0.32763901904754
C         3.58394914783025   -0.06961545219917    0.62462689883779
N         3.10785658020741   -1.23393049235534   -0.22323352927744
C         2.08834184634085   -0.87830664161882   -0.94841206212049
C         2.15607110801955   -1.29606650721557   -2.42110145157321
C         3.56393797092748   -0.97693791438468   -3.07516580285467
N         4.32426503864829    0.29463785470218   -2.90544888420698
C         3.86855466355396    1.64929074427733   -3.24755974038677
C         4.14011101572406    2.61807658096622   -2.07354712993425
C         4.69333436107843    1.74902406292861   -0.93884383640318
C         5.24996252752874    0.56134477434059   -1.78510473433720
N         1.09856545253969    0.05462982753372   -0.60113554112488
H        -1.00242260144077    1.47447326616749    0.32843298720795
H         0.17508806709587    2.86021285879346    0.36905965354885
H        -0.01477355618111    1.84986702210436    1.78211700910341
H         2.89769201352364    0.83499779988761   -1.19745774011486
H         3.04085236102727    0.08885409759456    1.56568169681842
H         4.62759680036394   -0.33857667005495    0.81851943883653
H         1.42139010845023   -0.67811631533592   -2.95196649774600
H         1.92828544751828   -2.36485455923551   -2.48924952180660
H         3.50408525583461   -1.15744428543670   -4.15963240507266
H         4.13199944202504   -1.82213824458780   -2.66591867002480
H         2.78989531871313    1.71429366887317   -3.43071575393335
H         4.46096918833161    2.07776245747146   -4.06352170094892
H         3.22933368794983    3.08087313535266   -1.68259971687234
H         4.93150363557240    3.33800723222020   -2.32015512413465
H         5.39052594649011    2.24176407339413   -0.25566757520825
H         5.33514162507660   -0.32007827906254   -1.14432585371317
H         6.26900491508905    0.71628824666673   -2.15841810769595
H         0.14061835415048   -0.16546283618794   -0.87424315839200
