33
 energy: -44.339281924967 gnorm: 0.122236205439 xtb: 6.4.1 (79825abcba525fcdf90b791dcacef51065a7a4e7)
C        -0.01842393616754    1.85940793453139    0.50841563065664
C         1.30751838884854    1.38581988378068   -0.02863651759035
N         2.36145146961212    2.14429903248819   -0.04006735246494
C         3.50982217213804    1.27205695996527   -0.41149790847339
C         3.76940444014265    0.27059273608942    0.75023650575768
N         3.33027666266038   -1.04866807038628    0.14370648244873
C         2.28795431479383   -0.87761114387554   -0.61528374741550
C         2.23844256184462   -1.52190745406381   -2.00465606520284
C         3.59654492257593   -1.16720106376357   -2.74050503628190
N         4.18460307947206    0.18958915776901   -2.93315481721325
C         3.32367196468315    1.35229386714793   -3.19144075376256
C         3.94756002405346    2.55855101608568   -2.45231840542391
C         4.63185279471548    1.87424597725210   -1.26390352341641
C         5.23249890321251    0.62906881448652   -1.98870184219131
N         1.25283095811659    0.02388290597208   -0.32124826740619
H         0.18064137004679    2.51883065119306    1.34629127495778
H        -0.57426354117575    1.00882672579250    0.90765425415035
H        -0.54089263687605    2.35417634821506   -0.32976064488503
H         3.07280555651385    0.55850066163794   -1.06781290481856
H         3.17393862701955    0.55601263166189    1.62750886722152
H         4.83978095035812    0.08642926431314    0.88992478532569
H         1.36785534037025   -1.06440271477758   -2.49066389355112
H         2.16922775562136   -2.61299909294395   -1.94493413922402
H         3.59191028367494   -1.66248682031243   -3.72381742534381
H         4.35919908808786   -1.70424849312373   -2.16216315211482
H         2.30911421847202    1.08305825193947   -2.87606438167755
H         3.48900441977951    1.47433540761397   -4.26759499333893
H         3.21998404273785    3.20093518396811   -1.94782693346769
H         4.64585526525431    3.01050738872558   -3.16893344748058
H         5.32119483197773    2.64253934241067   -0.90316610652143
H         5.60623839014562   -0.15047824278708   -1.31983351952220
H         6.06609416700914    0.96858553238433   -2.61453335497933
H         0.41325244183082   -0.29113762390876   -0.80762382919417
