33
 energy: -44.341495185639 gnorm: 0.131195058356 xtb: 6.4.1 (79825abcba525fcdf90b791dcacef51065a7a4e7)
C        -0.04436858475894    1.99425655401881    0.56548204447243
C         1.24491783309588    1.32990929603348    0.15656031977652
N         2.28170509096440    2.10140643767411    0.02982992001530
C         3.44600826519794    1.28688491468660   -0.41567539060468
C         3.82292636088715    0.21230070351913    0.64410851838382
N         3.31969294807978   -1.08108206039444    0.03167230261729
C         2.21089959484611   -0.87005214257997   -0.61470701286071
C         2.26364747335216   -1.55163836337019   -1.98605033711430
C         3.60481788852868   -1.17722325712755   -2.74289088035380
N         4.26004219441736    0.15954687742595   -2.82968233397642
C         3.52549669002267    1.32416284734879   -3.34340287511484
C         3.86605292583294    2.51844629242931   -2.42236923332448
C         4.59682671629686    1.87627614734515   -1.23811964388373
C         5.29812409396217    0.64803733932927   -1.89856339048268
N         1.17506568712175    0.05170535429344   -0.39552669562871
H         0.27931087801453    2.94764086047075    0.96895557310376
H        -0.45283494321147    1.50273600303902    1.45058109232989
H        -0.75616269687080    2.05742886549037   -0.27693542805309
H         3.07829327460953    0.63084130898298   -1.16753173880398
H         3.32281996993512    0.43311106530130    1.59636228479830
H         4.88923991919918   -0.03355911030349    0.68489118537778
H         1.40586662206276   -1.27565337607648   -2.61173445187520
H         2.27908779415422   -2.63206626753747   -1.80920147820103
H         3.48956938493613   -1.56761955138368   -3.76589685921516
H         4.42924937029709   -1.84703499339753   -2.46683722457945
H         2.45499829753675    1.13897262352187   -3.19843644164776
H         3.78733582062116    1.54754102252993   -4.38353717593704
H         2.99348660045883    3.13090474871641   -2.17730083572338
H         4.62675168178284    3.15281865287557   -2.89600098661136
H         5.20530615656056    2.58799595133679   -0.67349027341345
H         5.56226021808216   -0.26528447482446   -1.35927216365180
H         6.14895414559860    1.12088027018748   -2.40287037376512
H         0.26632928280640   -0.24920725098559   -0.74814682849013
