33
 energy: -44.341228173834 gnorm: 0.128027277754 xtb: 6.4.1 (79825abcba525fcdf90b791dcacef51065a7a4e7)
C         0.00049398020215    1.96464981747933    0.32592232770543
C         1.32532000710196    1.32590315149952   -0.00221243653724
N         2.37953162793722    2.07992842649509   -0.08145884391825
C         3.53863498692014    1.20354632402702   -0.40696766225525
C         3.76350460006050    0.20158024119227    0.76155192826095
N         3.29230331859769   -1.09956808596686    0.14014759755418
C         2.19817300358492   -0.96953017919595   -0.55103366997262
C         2.31161388529096   -1.60698348628850   -1.93981337335409
C         3.62331428877137   -1.14678913805903   -2.70099375023840
N         4.13438344191171    0.23003910487296   -2.95975685335598
C         3.40540945144877    1.47002973037807   -3.26111446896774
C         3.91322561827790    2.60844274489993   -2.34638335460102
C         4.65233535623098    1.83726058279015   -1.24735888440606
C         5.23890682719096    0.64890789884416   -2.07217785571024
N         1.19353462698663   -0.04314002769714   -0.22989227140805
H         0.15552398955888    3.03816952765921    0.32122705301885
H        -0.22312393035750    1.70595401513418    1.36270053804393
H        -0.90260804434534    1.81127468588655   -0.29148482575707
H         3.15849380156850    0.54381532371386   -1.14935784260241
H         3.21603896744021    0.38770988475403    1.69498001254212
H         4.81147854140138    0.02454486317510    1.02526383508082
H         1.36978413796459   -1.36238866541433   -2.44633722537071
H         2.25722429013459   -2.70024681625792   -1.96541477653778
H         3.49094405922254   -1.56124601366046   -3.71239690434907
H         4.39829617228677   -1.71866210985516   -2.17477608102719
H         2.31936265518558    1.32994732861512   -3.21467346205571
H         3.56770247913503    1.66383243897217   -4.32715311050636
H         3.15465495917299    3.17589662759418   -1.79948069497475
H         4.68827908146030    3.20956558452408   -2.83970007483277
H         5.42559869493997    2.40666455458913   -0.72444248623331
H         5.68792622249368   -0.11842289032534   -1.43629681505350
H         5.93542372338601    1.14835077968056   -2.75572651719186
H         0.22044659040383   -0.21592103190284   -0.48275114057227
