33
 energy: -44.338054226489 gnorm: 0.122421564244 xtb: 6.4.1 (79825abcba525fcdf90b791dcacef51065a7a4e7)
C        -0.08979879020881    1.81621238808452    0.51561789993598
C         1.21274150637738    1.22982539679546    0.03564626487757
N         2.31552519797343    1.54538359532114    0.64432301050368
C         3.45170618437476    0.84084558129215   -0.01160465639052
C         3.36886213023823   -0.64158802620007    0.45258049326763
N         2.79258592225316   -1.37366615254736   -0.74455287072180
C         1.92751453999220   -0.73114573083836   -1.47296315292027
C         2.13448171131228   -0.83257192924791   -2.98782352008445
C         3.68462553172299   -0.61247824874536   -3.23347628865678
N         4.40928113173374    0.59760646763972   -2.74935306690595
C         3.80733802802351    1.93499772539587   -2.65530319977843
C         4.41239578773928    2.54916553940163   -1.37183233150920
C         4.81201711472188    1.36944084893366   -0.47885284625782
C         5.32556684018972    0.41746781861527   -1.60428100754564
N         1.15489575842804    0.36401651194019   -1.05546029709890
H        -0.53165526492107    1.14935309370780    1.24812212966856
H        -0.76654842076377    1.79838024691194   -0.34084546294529
H         0.03382107155499    2.83703694340826    0.91928130945899
H         3.16050059902768    0.70937919210054   -1.02590805650028
H         2.85473783773166   -0.87141937699641    1.39518571599872
H         4.30876674396415   -1.18658117464699    0.58931620970548
H         1.49490318591231   -0.17979655163301   -3.59466775493580
H         1.75509030521418   -1.83374358383864   -3.21707416749039
H         3.84170579558970   -0.66224150645189   -4.32209106413541
H         4.09010604190960   -1.52184561895049   -2.77176512434163
H         2.71332020547181    1.99896661799853   -2.67292354599968
H         4.12467369063984    2.57552037271082   -3.48558370654831
H         3.68789329547441    3.18209380895899   -0.85122324878525
H         5.22875084194142    3.23511623494675   -1.63346947106937
H         5.55633409515128    1.54670561928038    0.30227970248025
H         5.51791631463943   -0.56582868714096   -1.16737219011716
H         6.32082958654089    0.69687347441092   -1.96924990038761
H         0.25721563814043    0.57070961022226   -1.49379757324540
