33
 energy: -44.338139240840 gnorm: 0.120648584218 xtb: 6.4.1 (79825abcba525fcdf90b791dcacef51065a7a4e7)
C        -0.12564020275762    1.84701667078524    0.47042878512687
C         1.26968892257847    1.41350304470494    0.10170629078624
N         2.31866768978972    2.17828536474481    0.07092021993083
C         3.48510691626767    1.34504197650619   -0.33237513547145
C         3.95788072636861    0.26258023077078    0.67990046412838
N         3.36606637059447   -0.96153980548194    0.00725876801382
C         2.26834282784391   -0.75763391811750   -0.65996528642722
C         2.21445802015034   -1.54146878030198   -1.97549710478693
C         3.59734297867056   -1.24165731110513   -2.68927203844638
N         4.18784629828913    0.11793211412973   -2.85245438711085
C         3.45879259561197    1.32218117319702   -3.27442731996100
C         3.95949287465270    2.51748919295891   -2.43114063606661
C         4.62520646847586    1.82768940210065   -1.23537244435247
C         5.23704313800389    0.56042928781697   -1.91085909290906
N         1.21182148803481    0.14983124562737   -0.48418589037434
H        -0.14043703187578    2.85615425734195    0.86782442446698
H        -0.52679731941527    1.08962858735843    1.14664901575948
H        -0.87493247426186    1.86369752535126   -0.34110780164759
H         3.04235089500892    0.75955557712921   -1.10183486441041
H         3.45594754922871    0.37276510287382    1.65024742688763
H         5.03044108398027    0.14702151003974    0.86803692586505
H         1.32030338445948   -1.21317686525556   -2.51969212724492
H         2.23357264293354   -2.63048186552147   -1.86358862856501
H         3.45240859387495   -1.53842910723626   -3.73958306335626
H         4.26716718730996   -1.90870183576693   -2.13166304563581
H         2.39183393405345    1.07306092604255   -3.24586493006300
H         3.61170574560642    1.44590569875314   -4.35222447791716
H         3.22161315133026    3.18168925438855   -1.97189379119833
H         4.60557907032420    3.28680096947789   -2.87402881641125
H         5.44506521919334    2.31935616127651   -0.70462386387918
H         5.53406432031489   -0.26021470257708   -1.25276980377806
H         6.10054343671518    0.86117399172052   -2.51562153060052
H         0.33431676887623   -0.10238056882966   -0.93923079776414
