33
 energy: -44.344303809536 gnorm: 0.100833086444 xtb: 6.4.1 (79825abcba525fcdf90b791dcacef51065a7a4e7)
C        -0.06832975827617    1.85132578419259    0.28877106955291
C         1.31150793017258    1.33381784368995   -0.02597830789736
N         2.34412917466220    2.11279795665976    0.08838762140919
C         3.55081151315185    1.34034254953538   -0.31750956797674
C         3.85657565341560    0.32457900339318    0.82032745827148
N         3.43767157375364   -0.97664833190366    0.16268946115514
C         2.37862036312993   -0.89734655104767   -0.58823281897822
C         2.27765890311280   -1.59163423605571   -1.95047215300782
C         3.49932731844481   -1.13088051764340   -2.84878426758468
N         4.07521682680357    0.24414502101411   -2.88702148981295
C         3.26975026499899    1.44092493401112   -3.16762389149967
C         3.98489199748240    2.56605213783449   -2.38451754989295
C         4.67878212333872    1.84523549657171   -1.22356975884049
C         5.16465212709995    0.54343075621969   -1.93477245455899
N         1.32023656168384    0.01976032978637   -0.49144724979330
H         0.16916098999054    2.86487288488577    0.59343700822758
H        -0.54362535912887    1.34960214822809    1.13387758058766
H        -0.85390837261880    1.97385765196723   -0.47814545801386
H         3.12717175890251    0.69312436893656   -1.04725848196990
H         3.23286337924134    0.43394003471139    1.71736369485362
H         4.88699138364353    0.17245795373046    1.15831780654539
H         1.28865948607690   -1.53398862690679   -2.42163395120574
H         2.43188024858364   -2.66924514234098   -1.83296094661203
H         3.23700954876599   -1.33994526052488   -3.89745678049490
H         4.27035414631025   -1.85763976215717   -2.56263870190330
H         2.24892721928731    1.16504789676358   -2.87937111577239
H         3.24606586039228    1.69651093303256   -4.23273034091835
H         3.32180138705547    3.31961469104650   -1.94978752718225
H         4.84138915101750    2.93383613948266   -2.96466018768400
H         5.46447906488290    2.43375846419033   -0.74198938499410
H         5.28262809635331   -0.31855970245613   -1.27309747762873
H         6.11621084114730    0.60672247834202   -2.47546452617223
H         0.54206586324012   -0.23703059150667   -1.09906553777142
