33
 energy: -44.349439158841 gnorm: 0.106291840468 xtb: 6.4.1 (79825abcba525fcdf90b791dcacef51065a7a4e7)
C        -0.03428744436782    1.88209245430282    0.30923801498411
C         1.25758186049360    1.13090809624912    0.11525484225291
N         2.37878923901289    1.64302453074095    0.52369945720209
C         3.42608089095467    0.78634376703697   -0.09823336629965
C         3.36528132661017   -0.64890738253995    0.49867362479400
N         2.88476050231986   -1.47237390995756   -0.68122618706358
C         2.02261413895171   -0.78952936909155   -1.37562484894341
C         2.11725845423770   -0.76834019222915   -2.90484623832458
C         3.61705986474594   -0.49568564166528   -3.33842158185018
N         4.38866007224800    0.66572688273144   -2.80968714044014
C         3.83250238058663    2.00764436982252   -2.58665726219418
C         4.50370987369183    2.63701187879798   -1.34409076323648
C         4.77621444237528    1.36164174192037   -0.53908629907873
C         5.24355835923332    0.36228354395341   -1.64337221251359
N         1.08817246949237    0.04568457239603   -0.74327590767966
H        -0.84491157759211    1.17390935535466    0.44290223766953
H        -0.27263026443816    2.37689937725445   -0.63426415901054
H         0.07157207462328    2.59566760339311    1.14584608487488
H         2.94742734764167    0.59269253022936   -1.02790291928121
H         2.72226076422618   -0.70988628665621    1.38662462453612
H         4.39900425035441   -0.95753031511756    0.68656635400223
H         1.47702925980698    0.02399440844666   -3.31196877762900
H         1.84802300614663   -1.74725543156312   -3.31481647098130
H         3.58969402825736   -0.45596456103389   -4.43837888208938
H         4.15699744155929   -1.38542468120377   -2.99003601010136
H         2.75272494992477    2.02007526035536   -2.39903086710111
H         3.93213749866551    2.62435048740179   -3.48670354391312
H         3.81620569455860    3.25181696499628   -0.75596783259698
H         5.47808996372896    3.10084668646395   -1.54622595563597
H         5.52553821553548    1.49155232413796    0.24655722998632
H         5.04765795118294   -0.65640281094880   -1.29890044913652
H         6.29793793257212    0.40892789168556   -1.93989500548668
H         0.22457322078818    0.23409322768735   -1.25257907748824
