33
 energy: -44.347319035208 gnorm: 0.109677350944 xtb: 6.4.1 (79825abcba525fcdf90b791dcacef51065a7a4e7)
C        -0.02561758200385    1.86119805153790    0.51899871400072
C         1.31387628356806    1.42669599759378   -0.01746921644579
N         2.34486381426899    2.20934139962665    0.08610252725505
C         3.50289767200609    1.37201927688223   -0.33267117383185
C         3.77588805289249    0.30231467082454    0.76329812669375
N         3.32519338569992   -0.99655982307697    0.12223626819036
C         2.30300641985564   -0.86732722955132   -0.67161211340670
C         2.25188937712308   -1.63830927207756   -1.99482725786495
C         3.50605601134782   -1.20572092668651   -2.86181383941949
N         4.16968438403451    0.12970199930532   -2.86881587201630
C         3.41730464751608    1.33179652711117   -3.25441894088286
C         3.96518498873546    2.47470074125332   -2.36887303394503
C         4.69213307965470    1.83028938504954   -1.18348685525048
C         5.21357884206456    0.55217587264286   -1.91224928780236
N         1.31760774909881    0.11657312516903   -0.49396559942907
H         0.03619042254353    2.80935104137004    1.04214934631516
H        -0.41508866982219    1.10495521346995    1.20328416474198
H        -0.78533186413856    1.88187680141852   -0.28269660734262
H         3.02893092234752    0.84171679910766   -1.12325974880240
H         3.22296793818546    0.69562909764944    1.62656746791744
H         4.85443921609209    0.23210480278854    0.93917545248023
H         1.38169747980458   -1.38290732195246   -2.61205671888032
H         2.40789179415294   -2.69464122683567   -1.75261987643373
H         3.33500027275739   -1.31487250854248   -3.94396844152392
H         4.30868620970836   -1.89504210070662   -2.56998900073467
H         2.34026774303450    1.18499803378589   -3.11399386670383
H         3.44490690516696    1.48647204703798   -4.33869312203769
H         3.16303313789349    3.12496413814625   -2.00797721054748
H         4.67790668356495    3.01548007039836   -3.00527183115218
H         5.36709406498429    2.51602715997020   -0.66407372427208
H         5.52919966254015   -0.34869704000750   -1.37973530221715
H         6.07425310985223    0.94127496499289   -2.46871981558466
H         0.37189969245911   -0.15981675146687   -0.75841995223979
