33
 energy: -44.342627743684 gnorm: 0.118211456866 xtb: 6.4.1 (79825abcba525fcdf90b791dcacef51065a7a4e7)
C        -0.09801348391358    1.70798224459977    0.59889120705385
C         1.30018661596400    1.39245060964447    0.13379985503349
N         2.30951463443368    2.20709775647208    0.07212982346442
C         3.46524940529639    1.38293530325660   -0.37793189162936
C         3.80037365348065    0.31321333693166    0.70064450695263
N         3.37769160561262   -1.01132303097549    0.09392855736546
C         2.28820815316969   -0.84920486817506   -0.59781274180257
C         2.22615058204976   -1.53122137291520   -1.96855229845211
C         3.49539590880208   -1.17566284458250   -2.84851069429244
N         4.14386113001992    0.16720295445745   -2.84529704741385
C         3.58279582926493    1.38760926872205   -3.44162782176469
C         4.12154336670600    2.51357681922314   -2.52919008510176
C         4.63570380282439    1.89075832554730   -1.22665560506874
C         5.16304030209007    0.56057358514148   -1.85043384104454
N         1.26804343628156    0.06819376010135   -0.30070594168739
H        -0.27747860022236    2.70779650527451    0.97923922683782
H        -0.36505164975935    0.92600755255400    1.31236421994107
H        -0.79133136824637    1.59541341924562   -0.25372087621691
H         2.99342831974476    0.86545347682670   -1.17823990288120
H         3.19394797171774    0.61201376769112    1.56587109292359
H         4.84685161971474    0.26135952783817    1.01896811246498
H         1.35692975122847   -1.30642103733671   -2.59891429926356
H         2.30683526057650   -2.61259194457159   -1.81700679766717
H         3.14713177708879   -1.33887045059014   -3.88016377832840
H         4.25586584015498   -1.93032068278726   -2.61035596553719
H         2.50100610732055    1.43888511232884   -3.27316633104783
H         3.83842923729556    1.47433363259609   -4.50345047309342
H         3.36663874912681    3.26463607681371   -2.27906036094784
H         4.79434689786447    3.12379263447628   -3.14594772532680
H         5.31504325837020    2.51322713174590   -0.63790343836280
H         5.23922252485306   -0.22683423391061   -1.09614951399507
H         6.13685311793734    0.67515696022608   -2.34071640500845
H         0.49572637181337   -0.36646214673582   -0.80597002811589
