33
 energy: -44.340532138573 gnorm: 0.132101729321 xtb: 6.4.1 (79825abcba525fcdf90b791dcacef51065a7a4e7)
C        -0.08379131267831    1.94413752218400    0.48527846636595
C         1.25189294804499    1.43288216157261    0.01051617768435
N         2.34059843852243    2.13742392420047    0.07787719241233
C         3.51481601608037    1.31250785334916   -0.31992768305675
C         3.80583764003627    0.22469010926469    0.75333806539963
N         3.40155440241460   -1.04134054476118    0.02198151244979
C         2.31782520733073   -0.80559773925813   -0.65751750038240
C         2.23545849008213   -1.50595985440865   -2.01789732099149
C         3.61547087215267   -1.29615568394258   -2.76841741902208
N         4.09531776157661    0.11562997361125   -2.78877117219296
C         3.43758462123951    1.31693139737672   -3.32174233294317
C         3.88524274476214    2.49568919468693   -2.42690898320727
C         4.61353351852265    1.84938816140236   -1.24337722081719
C         5.23851412456946    0.64694416978870   -2.01803986161732
N         1.29372876061872    0.06414719959479   -0.25082475447183
H         0.10091486469227    2.52858320627340    1.38015710937853
H        -0.57231500605461    1.04950041185415    0.87618330068114
H        -0.57387908290427    2.43264117327883   -0.37581790383769
H         3.15641185765738    0.75520212775363   -1.15170426529325
H         3.13177089017824    0.27507548524314    1.61863927434190
H         4.84355270633044    0.11495425716148    1.08536269782509
H         1.39327001457241   -1.08999470133108   -2.58457878246931
H         2.12201357408055   -2.58433712158871   -1.86600558629309
H         3.50150802123284   -1.71824213845137   -3.77890651514973
H         4.41003668082984   -1.77848461056395   -2.18483825624176
H         2.36357298306157    1.11257890068772   -3.24417589717516
H         3.69544340133781    1.53369695469933   -4.36426736605497
H         3.05202005089351    3.15380101234730   -2.16391725627822
H         4.50030582939139    3.23878749844355   -2.95123735033304
H         5.37796573767498    2.48035725490613   -0.78172799013129
H         5.67604915908133   -0.15337172325169   -1.41569675445203
H         6.06282241734783    0.97266182149383   -2.66320774349713
H         0.44571305844449   -0.17038703170525   -0.76711370975463
