33
 energy: -44.340898962076 gnorm: 0.124263026684 xtb: 6.4.1 (79825abcba525fcdf90b791dcacef51065a7a4e7)
C        -0.00309265686333    1.91669271067088    0.47700577376778
C         1.29699333319046    1.32017237036863    0.00290281936040
N         2.35588133451782    2.06978631490038    0.05796070905640
C         3.50959587077213    1.24175460408150   -0.39017814251957
C         3.83089874700696    0.27181643417778    0.78282007518326
N         3.31657778941728   -1.01451159870527    0.16476256382957
C         2.28585230805220   -0.92920238194363   -0.62396415601990
C         2.20733722244942   -1.63062061710096   -1.98402755126044
C         3.45699138752382   -1.12413515355544   -2.81683562708652
N         4.16683579864274    0.18439774280668   -2.90440615360780
C         3.43112360087959    1.41231303897776   -3.23719412017110
C         3.96091428122672    2.56090573208414   -2.34800846807993
C         4.66722423256767    1.85362422117291   -1.18622577172323
C         5.24086509023961    0.65515199356052   -2.00547848345962
N         1.25167250118038    0.00562540467364   -0.45904629700273
H        -0.34392996381409    2.60557695923478   -0.28834991861136
H         0.13362863268914    2.53471533659441    1.36649599894253
H        -0.66954498236606    1.05881813101186    0.67750839719640
H         3.13802464835587    0.56295344099788   -1.11960209296782
H         3.34737080167543    0.53786318030039    1.73206751511844
H         4.86963956412311   -0.05530459455285    0.89746833963858
H         1.23684602456764   -1.38336048578863   -2.43173902892220
H         2.31947448406191   -2.71667264812885   -2.06621381572608
H         3.30012636742922   -1.39447381327255   -3.87255485510702
H         4.25302029878166   -1.71620539804864   -2.34744085346515
H         2.34631668449691    1.42351114701428   -3.08116192612576
H         3.67431471167118    1.75733135412894   -4.24821209596264
H         3.11061660813839    3.18583133626671   -2.05991520348760
H         4.69673739535012    3.17107016984541   -2.88808404508300
H         5.32684731758463    2.46034822104209   -0.55982174445777
H         5.65995152207280   -0.18549660308140   -1.44651860002104
H         5.93082902745799    1.00203641668926   -2.78357790586215
H         0.34069116178687   -0.38736594171942   -0.69645312223278
