33
 energy: -44.343282574618 gnorm: 0.115022937857 xtb: 6.4.1 (79825abcba525fcdf90b791dcacef51065a7a4e7)
C        -0.07212536422642    1.98017431485439    0.37247884484359
C         1.25784695329560    1.33356295106944    0.08282201605501
N         2.32894770829065    2.06710712210433    0.11201697925199
C         3.53665276247083    1.30979935420407   -0.31862857600991
C         3.82415356856408    0.22916285618330    0.76280955683540
N         3.39320921110237   -1.02685912962481    0.02942242760011
C         2.32587884107703   -0.80247887015226   -0.67925373233795
C         2.24292887519779   -1.48273549591990   -2.04976270171748
C         3.60559204779513   -1.22033800907935   -2.81528801297756
N         4.18591565113018    0.15334786597989   -2.81949215977537
C         3.34277368283246    1.30519543515074   -3.16899902475750
C         3.94995060198351    2.50622673607156   -2.40777995876100
C         4.65505596601371    1.85730281026654   -1.21170969725341
C         5.30268942867585    0.68214706174042   -2.00930256178516
N         1.22754359333597    0.02402346507877   -0.39432861642026
H         0.11224028744617    3.03072768956645    0.56957735808483
H        -0.32625700491944    1.45567915116803    1.29560369088891
H        -0.90267013032201    1.72595076261272   -0.31007119964784
H         3.03900953628704    0.76432351393235   -1.08394081189525
H         3.16696810196114    0.48073351529381    1.60570356753968
H         4.88183452748409    0.14212299841336    1.03275385005857
H         1.38662478904994   -1.13503765965491   -2.64076679135158
H         2.18738174837189   -2.56710835661702   -1.90873649581705
H         3.51982650755949   -1.58936356844103   -3.84906609583487
H         4.24769705753571   -1.94094706092292   -2.29282805925466
H         2.32855501681206    1.00746029034147   -2.87918568076375
H         3.23387181316637    1.47393676286599   -4.24603367990864
H         3.21918658995557    3.25292100453811   -2.08379308033523
H         4.67574422115405    2.90030458255241   -3.13120528150645
H         5.43904052163721    2.42475611024084   -0.70282504313458
H         5.64254448118781   -0.08243561632816   -1.30597367458405
H         6.13285191409753    1.05053114106220   -2.62325790285765
H         0.26985038848544   -0.28549773176819   -0.56079646219833
