33
 energy: -44.347366783856 gnorm: 0.120755229432 xtb: 6.4.1 (79825abcba525fcdf90b791dcacef51065a7a4e7)
C        -0.02813283413791    1.81222503931126    0.60644401185288
C         1.26848848657957    1.18389211546389    0.16507727634068
N         2.36539016017319    1.81198556962824    0.46256941089645
C         3.44528673429653    1.01071494151287   -0.17720472706224
C         3.47560502983206   -0.30463894693006    0.65277440674488
N         3.05673052593293   -1.33664844209663   -0.37710981364731
C         2.04479303964520   -0.90871234266511   -1.07325329950381
C         2.15212176588986   -1.14013492567736   -2.58416320626449
C         3.58759966618781   -0.76898764814444   -3.14397143706687
N         4.37209570860664    0.47890966664236   -2.91786461364020
C         3.70333897994368    1.77918744870537   -3.06564275542529
C         4.33131484172673    2.57602939634357   -1.89890212674604
C         4.72282678476467    1.60451926206713   -0.78008740848587
C         5.22256188636539    0.45455951103394   -1.70983572161552
N         1.15030224260070    0.11431671138269   -0.72122129520760
H        -0.91804680667866    1.20370264850584    0.48705168657518
H        -0.21355398235343    2.67802111989279   -0.03219022240118
H         0.08409035647108    2.11314551175658    1.66340267758033
H         3.00678784384786    0.82180544363905   -1.12742965736299
H         2.80991071159261   -0.10192787409102    1.50213307512495
H         4.50531539691253   -0.57940991683337    0.90443360316870
H         1.37464222180233   -0.51715344158651   -3.04335373431338
H         1.91528738423643   -2.18618485634462   -2.80445254163234
H         3.57950376840711   -0.91948094677102   -4.23462213244701
H         4.15741745167739   -1.53801560561766   -2.60690128462462
H         2.60784583804186    1.78750433675067   -3.03242984687696
H         3.93697364666621    2.30921548687211   -3.99560083199428
H         3.71995737146751    3.39810881827347   -1.51554414773944
H         5.30478270389488    2.91343712069095   -2.27828883732804
H         5.45907517690797    2.03225683046500   -0.09410088499209
H         5.20624889065226   -0.52216379178687   -1.21942249574512
H         6.22824431728323    0.74961247299266   -2.03133898235283
H         0.29588097892707    0.18769708966228   -1.27373448718418
