33
 energy: -44.348320964206 gnorm: 0.113879318583 xtb: 6.4.1 (79825abcba525fcdf90b791dcacef51065a7a4e7)
C        -0.09678583120070    1.79368471448568    0.41215909445637
C         1.22530367147771    1.14435422881904    0.09390922737139
N         2.30947230482607    1.68756017666044    0.55834642268432
C         3.40366692033174    0.86891286125082   -0.03332653653139
C         3.32154142171058   -0.57284516832377    0.54505879829666
N         2.94211454305468   -1.39980633415129   -0.66874984656247
C         2.04858051279266   -0.78475093376815   -1.38643105459111
C         2.12106348580344   -0.82235657900033   -2.91654759962434
C         3.57948079703422   -0.44356493289355   -3.40773819187337
N         4.45952415878469    0.58596598894401   -2.78372231837785
C         3.91880214041410    1.95001819237489   -2.70139648995888
C         4.54035929863923    2.54005232464508   -1.41449288434363
C         4.78867875013732    1.37611609398863   -0.44885847310730
C         5.23842206831651    0.36315531933210   -1.54804723790565
N         1.14080787205685    0.16787377599180   -0.89746914301494
H        -0.89670625733155    1.11189633784426    0.68010093291934
H        -0.36376212322347    2.47766434319428   -0.39575987832355
H         0.08203442872237    2.28564932541746    1.38494012686784
H         3.07427763911617    0.72277413700350   -1.03384723598876
H         2.58565158864633   -0.74641838572230    1.34129327597162
H         4.29098022723745   -0.95335520229670    0.88348957555899
H         1.35754423640335   -0.16924036239395   -3.35690412935040
H         1.95382914268846   -1.87688155103836   -3.15913394497545
H         3.44365209062372   -0.00546081672588   -4.40866179830130
H         4.18157370060309   -1.36118370532554   -3.40849764818336
H         2.83538328077260    1.81920106683959   -2.59957335810205
H         4.11685075218572    2.47405606108307   -3.64293669830040
H         3.79775011181975    3.23705639867287   -1.01542799034796
H         5.49412698220036    3.03039207746537   -1.64967804239961
H         5.46854937783412    1.44545011230192    0.40470309877717
H         4.97375518063038   -0.65532204538183   -1.25238703934858
H         6.26009230788328    0.52903875615703   -1.90928172746402
H         0.23867005694649    0.21662062800181   -1.37124367652507
