33
 energy: -44.352052574878 gnorm: 0.113314228484 xtb: 6.4.1 (79825abcba525fcdf90b791dcacef51065a7a4e7)
C        -0.07136270661238    1.73699703768328    0.67694014188232
C         1.24658489229953    1.21401198917766    0.16671031469359
N         2.34666719566970    1.89310749217260    0.28854817442942
C         3.43251482008305    1.05170887128705   -0.28634787874626
C         3.49276257787557   -0.20573455308449    0.62751570602916
N         3.05818319629504   -1.31526638265528   -0.31122858208484
C         2.05323308378746   -0.91689948809825   -1.03451388400193
C         2.03344546007340   -1.06267016947077   -2.55972992813096
C         3.47028002767540   -0.80871871347484   -3.17839578595784
N         4.34259452920506    0.35292616544149   -2.84156552674897
C         4.00760107371751    1.74803633458079   -3.15975296548235
C         4.37132224146796    2.62674088738241   -1.94066327084802
C         4.73891101070006    1.65213951723465   -0.81643438950393
C         5.25313700350887    0.45986178883729   -1.68281765970936
N         1.13485641722142    0.04404910666057   -0.58308185886698
H        -0.81817216792752    1.58036500951615   -0.09393140856075
H        -0.02558767311941    2.80140940034300    0.91520156580744
H        -0.37671169085180    1.16922506737868    1.57399408924086
H         2.95058262347074    0.65828559475274   -1.14881815349054
H         2.88996934033840   -0.12344719867077    1.54158351252833
H         4.49950288801374   -0.50142477175711    0.94084639380406
H         1.33304405227635   -0.30113813883216   -2.92434362783807
H         1.78087494367445   -2.09608156280992   -2.81878089225282
H         3.39520156892973   -0.70508171840632   -4.27194748337020
H         4.08865567893776   -1.64206698935054   -2.82106840328281
H         2.94901973226353    1.89543923601016   -3.40256033440344
H         4.62134162904912    2.04085100997562   -4.01877508270137
H         3.45798391736720    3.18940561676156   -1.72675352279689
H         5.12890940572914    3.37258875466505   -2.21487226096781
H         5.40420110576651    2.05194939261700   -0.04627870173125
H         5.27085651455617   -0.38224322147640   -0.98617942931877
H         6.22308672228931    0.70819404510584   -2.12929988858854
H         0.19731873546525   -0.14877425603104   -0.93597483606723
