33
 energy: -44.335430960917 gnorm: 0.133301170119 xtb: 6.4.1 (79825abcba525fcdf90b791dcacef51065a7a4e7)
C        -0.04216421372116    1.72689499474171    0.59954628401750
C         1.33902075553474    1.43427806414204    0.07272836039807
N         2.38834792017921    2.19766167857044    0.12124835094811
C         3.50979534611010    1.36666384584086   -0.39771257756320
C         3.74003624469554    0.27047028603390    0.68177304494828
N         3.34622294440642   -1.04502375356069    0.03714332699420
C         2.33151837415762   -0.76471768623296   -0.72677137554467
C         2.17094602048659   -1.53803619555569   -2.03982873200709
C         3.56929400003262   -1.30123254037020   -2.74713300604350
N         4.14415997668910    0.07475176411336   -2.74866737987972
C         3.46235271975011    1.28344175984276   -3.23240657647485
C         3.99795555106088    2.55391448326627   -2.53267582139545
C         4.62456365709873    1.95679235030819   -1.26789625512014
C         5.18317451834105    0.62108379153555   -1.85134383190869
N         1.30891352326352    0.17593259561901   -0.52655865872625
H        -0.08637064435528    2.79468614852347    0.78493440381899
H        -0.21508475817000    1.11435841539121    1.48652709901484
H        -0.80330374253937    1.51254086616846   -0.17183411535927
H         2.95179371285046    0.93893505793018   -1.19557080772378
H         3.15700331552682    0.56700565089980    1.56369720963293
H         4.74341069999520    0.13129440447937    1.09771132125678
H         1.34391145209705   -1.09470360731991   -2.60807722843525
H         2.01715986493355   -2.62205448988529   -2.04944756283436
H         3.46338241474819   -1.60902755995140   -3.79893036432990
H         4.40671117727012   -1.89497846279618   -2.35888192111952
H         2.38084442676988    1.26866503309176   -3.05520907825049
H         3.66225285488343    1.31470770335829   -4.30916062488040
H         3.24076945700267    3.30579642258572   -2.29209602483611
H         4.87163476082699    3.07732245333819   -2.94273272071642
H         5.35683893687907    2.57801711419834   -0.74497050822576
H         5.34523646416194   -0.18886473651568   -1.13546747109505
H         6.06585204606714    0.80828940407822   -2.47396104076667
H         0.42501308829459   -0.27756844140222   -0.75839487488990
