33
 energy: -44.341519809284 gnorm: 0.121978121026 xtb: 6.4.1 (79825abcba525fcdf90b791dcacef51065a7a4e7)
C        -0.05315064872707    1.81264239825015    0.49265429248000
C         1.31560565775369    1.31411983978807    0.10688862139692
N         2.36189035099478    2.08297164224610    0.12563656978711
C         3.52013989850950    1.28245921965427   -0.35929643211646
C         3.70754359094087    0.14065634173146    0.68046625726263
N         3.28988676862532   -1.14319987121397   -0.01122511968945
C         2.21012643411270   -0.93882883651682   -0.70700715702260
C         2.22413852611177   -1.50222197672814   -2.13189888793623
C         3.50516003933941   -1.08743587427896   -2.96776295361598
N         4.08644053188541    0.26081356205816   -2.70672177795590
C         3.48776538070404    1.51900436476432   -3.17399067235659
C         4.17372463043829    2.58909187122107   -2.29366851304089
C         4.74916295679411    1.82689429294887   -1.09500863603868
C         5.26466313761471    0.57528760903279   -1.87238550544488
N         1.22976186494560   -0.00420363232430   -0.33823919193225
H        -0.06790484395715    2.79630139304514    0.94948927876491
H        -0.55708680747696    1.08787267388478    1.13498966951501
H        -0.62845401685250    1.88308933619713   -0.44775629044279
H         3.14440380250139    0.82518125804204   -1.24282048069820
H         3.12771345225553    0.27723500153840    1.60285128085750
H         4.75248388246777    0.00251155224099    0.97736805933128
H         1.44903418141517   -0.92287243025884   -2.64862287661190
H         1.98868565122545   -2.56929561233941   -2.20084935526783
H         3.15013494245784   -0.90662867823896   -3.99416378149128
H         4.26486434315718   -1.87650128895169   -2.89872824064842
H         2.39618448332925    1.56000444081229   -3.08428208267872
H         3.61332911094060    1.63110386069166   -4.25658217252120
H         3.39783971063253    3.28406553226413   -1.95967738205501
H         4.90063790656292    3.08974852694864   -2.94662940597657
H         5.48948504306420    2.43491168792471   -0.56790647707811
H         5.52948009389276   -0.34108226492895   -1.33862723752846
H         6.19454219999446    0.72619606787852   -2.43307197085183
H         0.29513144044906   -0.29892009560695   -0.62161064983613
