33
 energy: -44.335413425549 gnorm: 0.122782848099 xtb: 6.4.1 (79825abcba525fcdf90b791dcacef51065a7a4e7)
C        -0.04639734554582    1.94668628840432    0.49330567100677
C         1.22154538287763    1.30055987310509   -0.00235104292717
N         2.26080406656970    2.06254724747872    0.15737640415870
C         3.47169081705291    1.31962894253364   -0.28910744221223
C         3.79377213346762    0.27146020007364    0.81431736463325
N         3.27054692230246   -1.00872581018651    0.19100356181443
C         2.28130279813837   -0.91442796452787   -0.64820230859069
C         2.41354250827730   -1.72381616676714   -1.94254692388321
C         3.47668087066557   -1.15758021789213   -2.97252071292236
N         4.12800199740282    0.17725835034528   -2.83913102798069
C         3.46583552043884    1.41830202664553   -3.26473928610498
C         4.06429018612950    2.56348816198384   -2.41562493188145
C         4.60621910289680    1.84706303232227   -1.17388905656750
C         5.17605941917646    0.57499750650006   -1.87653109107513
N         1.23825005496780    0.02033432285276   -0.55391986044964
H         0.24347680082835    2.94367305306214    0.80713887851987
H        -0.51717931844444    1.49619210297541    1.36923766276402
H        -0.75324087192783    2.20850144371154   -0.31424236995081
H         3.06458623699335    0.70333714446536   -1.05418637296002
H         3.38397427571618    0.37352524956559    1.82787510050321
H         4.88756316784418    0.22902621654513    0.78340778486860
H         1.40412729571263   -1.78242125991827   -2.36808502738249
H         2.77357867111245   -2.74523737919300   -1.78157788578601
H         3.00196028348457   -1.00881134875159   -3.95473296196426
H         4.28873193158453   -1.88147946302709   -3.11772264936017
H         2.38375887746715    1.24400504723037   -3.26760109443583
H         3.65937261392833    1.67595554107494   -4.31187583849943
H         3.33045504081658    3.35150945710474   -2.22315600999489
H         4.80176561616276    3.12433302218155   -3.00469280023784
H         5.40225568583294    2.40778118272734   -0.67637570142469
H         5.35383058897989   -0.20873428559131   -1.13563869756702
H         6.12242296423672    0.95461840304644   -2.27914971608012
H         0.39699896932958   -0.33940715771528   -1.00511147222483
