33
 energy: -44.343643076166 gnorm: 0.126339037795 xtb: 6.4.1 (79825abcba525fcdf90b791dcacef51065a7a4e7)
C        -0.05918159090035    1.76896243003653    0.65820817524168
C         1.27889337435233    1.35495681816392    0.10234088970193
N         2.40714809574710    1.93565216012247    0.37807704624126
C         3.47116902797227    1.07967137314706   -0.21579037386819
C         3.58628798882528   -0.21284033111653    0.64217321216268
N         3.16360721026915   -1.28611507447802   -0.34300862067971
C         2.12075277812372   -0.80276552373808   -0.95176996264334
C         2.09477271634476   -1.14630266479356   -2.44483120799906
C         3.55331951918250   -0.96309556748780   -3.03712231060546
N         4.31895271895014    0.28653951511727   -2.76139779921233
C         3.77668511470423    1.57144735893033   -3.22481330320104
C         4.15102275559093    2.57311503823654   -2.10806460511236
C         4.65597549115836    1.75534088503485   -0.91427732318501
C         5.32379000970487    0.60032495980606   -1.72454672224815
N         1.15103184559890    0.12844765138106   -0.54789858892123
H        -0.83714099033246    1.01459407580946    0.61121389213876
H        -0.49516446559526    2.64849309873697    0.18052389860487
H         0.07632636177621    2.04323774493257    1.71967858959351
H         3.00912272356783    0.79237704742399   -1.12950295152582
H         2.89031312945797   -0.26916851096806    1.48957924272336
H         4.62426068733273   -0.42260112719638    0.92100642249650
H         1.36129490778906   -0.47553113985096   -2.90906410086220
H         1.81871574200913   -2.19273757537970   -2.61097842503124
H         3.50994122074670   -0.96318707746446   -4.13728185905362
H         3.99094661488484   -1.87255364104030   -2.60595042928858
H         2.69645066284838    1.47773588668960   -3.38477949093595
H         4.28377803678035    1.84599130063889   -4.15638149435494
H         3.26251715194309    3.19240987137318   -1.95454727320418
H         5.01577215327905    3.10870047866324   -2.52131348886777
H         5.32387511444730    2.35867602680998   -0.29339454431342
H         5.52140797099796   -0.22483661836534   -1.03547839251648
H         6.29001078437856    0.87907906171112   -2.16104564373896
H         0.29787718743070    0.06240097937231   -1.10328689470998
