33
 energy: -44.345775872307 gnorm: 0.116923351147 xtb: 6.4.1 (79825abcba525fcdf90b791dcacef51065a7a4e7)
C        -0.12614344918878    1.79381303190129    0.59461580623765
C         1.23918495966746    1.37547169069913    0.11326089757654
N         2.29665432211919    2.12866887194635    0.08778993883879
C         3.45287095871046    1.35729929643573   -0.44669506685659
C         3.85157799111851    0.34437158956339    0.66458822860961
N         3.41334897570120   -0.94301724773628   -0.00753248672518
C         2.28769238701485   -0.82670456989103   -0.64872755347024
C         2.20508350502140   -1.50488169913643   -2.02028730795737
C         3.56491525792226   -1.23143251872252   -2.78697858358628
N         4.15245262197377    0.13918941588908   -2.78816084835061
C         3.48691322382870    1.34714353560574   -3.29580284800021
C         4.02887036647013    2.53811200666418   -2.47210932598507
C         4.65504807542752    1.89675657556952   -1.22895825035933
C         5.21016225680112    0.57891301585978   -1.85482654091442
N         1.25408545282252    0.10379448606938   -0.45779052991486
H        -0.02338414066625    2.86835969733803    0.70087445736369
H        -0.26561872311605    1.34524633851463    1.58009645510299
H        -0.86399555032748    1.36199388523017   -0.10496642247697
H         3.15330838549022    0.70055976540760   -1.22762460356486
H         3.24689377849188    0.52713187524770    1.56270098887924
H         4.87698953024551    0.15759310901267    1.00041533164398
H         1.34080849087854   -1.07179611510482   -2.53884481644332
H         2.03114178684465   -2.58170516548268   -1.92524064042599
H         3.29166344321576   -1.59772998570354   -3.78867331112234
H         4.32099972241427   -1.96377468216746   -2.47625058802936
H         2.40260160979352    1.19088881768511   -3.26218323959417
H         3.81793287004686    1.45941462689446   -4.33414676880221
H         3.31459412072870    3.24903387149304   -2.04674428487070
H         4.78094199901811    3.11799166578328   -3.02305920018121
H         5.41712766028064    2.49267732223957   -0.71933898534937
H         5.31976828125062   -0.24781330682989   -1.14823630510024
H         6.15019111432662    0.67652868676012   -2.41037552453747
H         0.35510446813677   -0.22690338145981   -0.80873682155366
