33
 energy: -44.342141916947 gnorm: 0.121660246363 xtb: 6.4.1 (79825abcba525fcdf90b791dcacef51065a7a4e7)
C        -0.02550106709422    1.76352326776167    0.55388569134324
C         1.36013257173521    1.34406063815250    0.13567019491677
N         2.32899058562005    2.20498472203567    0.05617129273447
C         3.50831622722400    1.39082278519063   -0.34861696168456
C         3.75171049053965    0.31531184738460    0.74864136967944
N         3.53391165594395   -0.99420460760997    0.01454922618908
C         2.43608782963348   -0.80538072759374   -0.65693487293762
C         2.20402800665591   -1.43818509977720   -2.03302769628024
C         3.54792951206250   -1.22313751482581   -2.84507181289075
N         4.19951774757133    0.11738604134403   -2.89235194612205
C         3.52762409826492    1.32676933758512   -3.38808091815580
C         3.94861077252136    2.54971841055937   -2.54087359823296
C         4.58782138614753    1.92653794657148   -1.29511447190470
C         5.11731486469852    0.55529924538534   -1.82039116057671
N         1.35926830891387    0.01523769669222   -0.28589059533092
H        -0.11857854456355    2.75595724373050    0.98156814913451
H        -0.57705114148025    1.06707839047558    1.18838909854237
H        -0.60733508820948    1.82142399290594   -0.38335785839768
H         3.10685338916633    0.74885783091417   -1.09534588251474
H         2.99690692443878    0.32974441174998    1.54595819907663
H         4.77878365112313    0.23749647056841    1.12039445953145
H         1.36051409688716   -0.95073414358867   -2.53732141446083
H         2.01566330741373   -2.50890482441935   -1.90296471193292
H         3.19154257373259   -1.43898993908426   -3.86420320900120
H         4.21292759932521   -1.95370632636119   -2.36696365627344
H         2.44889167602068    1.13430148293463   -3.36420671169339
H         3.67603892589169    1.47196238648211   -4.46382666764413
H         3.07987177681537    3.14097724377066   -2.23716087634004
H         4.70409631319372    3.19808951045914   -3.00377146499510
H         5.35573551371773    2.52200620090279   -0.79379214379362
H         5.06397253330250   -0.18773586723611   -1.02050799909501
H         6.15075730649808    0.63183889071416   -2.17810074565514
H         0.43496535135278   -0.37304469269879   -0.47454906242557
