33
 energy: -44.340028146670 gnorm: 0.118572872919 xtb: 6.4.1 (79825abcba525fcdf90b791dcacef51065a7a4e7)
C        -0.02694992478709    1.80859280042414    0.52255477209101
C         1.24526534935460    1.12778695368860    0.08803735655408
N         2.36019542115658    1.71067202813707    0.40955272661459
C         3.49484021286725    0.91985339059488   -0.14245200978048
C         3.44137655027060   -0.41889703140636    0.64800946128332
N         3.01126313097014   -1.30221097723836   -0.50781053094797
C         2.01160364652707   -0.86019056307568   -1.21283632344703
C         2.08780630045809   -0.93325649312379   -2.74148903425753
C         3.52320388653312   -0.58573625003835   -3.31646363340322
N         4.32197833466047    0.56404170718579   -2.80287230161803
C         3.89434893964040    1.96783106832392   -2.88227484271473
C         4.39076658064246    2.63040440888651   -1.57645688088216
C         4.82066545625664    1.44988796640505   -0.69871671989663
C         5.20750698389977    0.27841888064536   -1.65505783400237
N         1.04001352477832    0.05528832065357   -0.77862464730370
H        -0.74961085377792    1.05596207441821    0.81888073751007
H        -0.26879169657707    2.36649286190086   -0.38414122127064
H         0.16384988558811    2.58671873072949    1.28309685341777
H         3.05473365700887    0.69685685847303   -1.08451053031770
H         2.84490721873338   -0.27462705122106    1.55853752129862
H         4.40273107054081   -0.86469577051311    0.92404539842773
H         1.36179585454751   -0.22308232208874   -3.15621518572244
H         1.92988268840859   -1.98520300011506   -3.00092505148937
H         3.44666030743708   -0.46159886796228   -4.40777646716392
H         4.05901704095561   -1.52699133902900   -3.13902697652200
H         2.84542842109642    2.17485825091438   -3.12348631661082
H         4.46400779957533    2.37792135952724   -3.72349516849863
H         3.59484810665347    3.11343099357343   -1.00223134082649
H         5.18125905552016    3.38555751779087   -1.67786372800059
H         5.54104188231132    1.78189061802492    0.05389916325236
H         5.05067744817855   -0.74273649565403   -1.29811828345688
H         6.27737531491881    0.32600310303678   -1.88944050687815
H         0.10531190397521   -0.07217002849073   -1.16692663102419
