33
 energy: -44.350372434333 gnorm: 0.119634180478 xtb: 6.4.1 (79825abcba525fcdf90b791dcacef51065a7a4e7)
C        -0.02706224784284    1.94074161623306    0.43593007257100
C         1.28917275166986    1.32635766894012    0.03481724699826
N         2.32257589925768    2.10947551174646    0.10553227613546
C         3.48709972559356    1.30699040280234   -0.36075527410740
C         3.82132737900294    0.26995657446010    0.74955689860229
N         3.41222404868911   -1.04388410986171    0.11110715169062
C         2.34163237133681   -0.87576472054590   -0.60815070360255
C         2.29979453761362   -1.59823365386566   -1.95878494544188
C         3.59180453699808   -1.22912381441649   -2.79914228512980
N         4.08481062290325    0.17823729884215   -2.80840213465088
C         3.38201921436928    1.38014297807229   -3.27883090030169
C         3.95297147621055    2.57543668971225   -2.48140947928907
C         4.58072226985094    1.87836459809329   -1.26943614980735
C         5.19273585923505    0.60201193491852   -1.92741621957959
N         1.26448571697068   -0.01278414879392   -0.35193129682903
H         0.16692345905002    2.81618756343867    1.04622905765274
H        -0.63908321395240    1.28976224173316    1.06322085651927
H        -0.60956439661951    2.29719690411245   -0.43236691938910
H         3.04355300264880    0.72855635085965   -1.13507810470233
H         3.13125377669863    0.40869864392485    1.59229049568598
H         4.86491002628477    0.23329595542542    1.07929335359060
H         1.41695705965867   -1.33024694074614   -2.55226402748191
H         2.30311526891563   -2.66647369003819   -1.71859632189720
H         3.37689337954956   -1.39243434933439   -3.86655766076677
H         4.41993899733819   -1.89948324062704   -2.53579421248719
H         2.29518303649439    1.39073265786232   -3.13757767886580
H         3.60095475548451    1.60956384538114   -4.32753018878462
H         3.23595771299599    3.33566519541509   -2.15817619980562
H         4.79032055566132    2.93007896638185   -3.09662757077427
H         5.35870247834577    2.36674996234139   -0.67628763154570
H         5.38674390224272   -0.17631707848525   -1.18490394169568
H         6.00270108372881    0.88851539762563   -2.60836397866017
H         0.46694269089208   -0.40425991017454   -0.85329249531230
