33
 energy: -44.340126824214 gnorm: 0.122500201586 xtb: 6.4.1 (79825abcba525fcdf90b791dcacef51065a7a4e7)
C        -0.07281209972707    1.83260265810352    0.45078782939990
C         1.28674028598422    1.31876315990933    0.05276774739426
N         2.31589497040707    2.08585750211950    0.24924452451046
C         3.51088166697276    1.41609813761926   -0.33466586183502
C         3.80856607520700    0.33389224974754    0.74243896273874
N         3.42889120713244   -0.92372204148400   -0.01612166697617
C         2.32090097796944   -0.85409119076035   -0.69381755175689
C         2.18215125390460   -1.52775600406861   -2.06306874719006
C         3.49727592787602   -1.16993366858679   -2.87185959412058
N         4.24170850681897    0.12200882592063   -2.89445988998878
C         3.40157186227761    1.29440277266204   -3.17634481153588
C         4.10279627387248    2.51064625361495   -2.52855581438484
C         4.64961659828817    1.94407804752850   -1.21369920512421
C         5.12292191168638    0.57660813547814   -1.79900480083101
N         1.25079977894666   -0.02075318668582   -0.33179552828393
H        -0.06631743951720    2.91713623274084    0.46646117841651
H        -0.23120757314598    1.36691768057845    1.42540874107300
H        -0.80707627558269    1.44688038090254   -0.27885813994030
H         3.03907955587347    0.88996246304235   -1.12932271140621
H         3.30630886011687    0.59460776105045    1.68340439935386
H         4.87103667887754    0.17900290009661    0.95761418598940
H         1.32725048433677   -1.03593413875731   -2.54337306805917
H         2.12227890468252   -2.61267408688507   -1.92813755606022
H         3.33586841987430   -1.28937762047391   -3.95440912116157
H         4.22834783235292   -1.90745782999897   -2.51670802601198
H         2.34642152148145    1.17021404547354   -2.90706352454644
H         3.48988474569325    1.36188043267642   -4.26629183134354
H         3.39356610166180    3.34063792319683   -2.46042168227183
H         4.89443775450207    2.82609752187031   -3.22080734783271
H         5.47921643557062    2.53937897441827   -0.82257322106533
H         5.19086371886854   -0.18000459926173   -1.01307812795769
H         6.10610731383054    0.78309334016465   -2.23778501111830
H         0.35498032206117   -0.37339504487803   -0.66920094264586
