33
 energy: -44.336609770077 gnorm: 0.121272130035 xtb: 6.4.1 (79825abcba525fcdf90b791dcacef51065a7a4e7)
C        -0.05246653676440    1.87384583468626    0.69667622610508
C         1.23226297528261    1.31438393240873    0.14232420142162
N         2.25869944064117    2.09132320753317   -0.02793969174721
C         3.48402321974884    1.32162369748991   -0.37960212299952
C         3.76959670301400    0.29921909059140    0.75753331616570
N         3.44316717790334   -1.01331207432536    0.07060779909213
C         2.33517808216903   -0.84667910478620   -0.58996479810723
C         2.25298728473282   -1.43066794806098   -2.00422302901705
C         3.57248071986401   -1.20639745069013   -2.85297045463457
N         4.27393302773340    0.10956771083591   -2.85550151905937
C         3.61548102131616    1.29768308791428   -3.41641065616325
C         3.90082784319892    2.51643499649473   -2.50876786310287
C         4.58074742839053    1.89007664449854   -1.28637493064498
C         5.19591901511881    0.54537052233027   -1.78627880955404
N         1.26963452380034    0.05806386669774   -0.46079102007372
H         0.13003865922565    2.91707130473872    0.93092691195294
H        -0.44458726757018    1.30077370912500    1.53909370463341
H        -0.87052294711601    1.76041586729295   -0.03696274932154
H         3.08418423280060    0.64979524452292   -1.10048408945688
H         3.00786129617377    0.49674019464020    1.52329792556109
H         4.77846763559641    0.41508580927420    1.16727618320427
H         1.48946929750641   -0.79167143277733   -2.46483139008074
H         1.91473386087480   -2.46600069248063   -2.11606713541497
H         3.47384308677120   -1.37736570702769   -3.93614781406396
H         4.22199697027914   -2.00399028692557   -2.47019772517689
H         2.56361620136153    1.03627582393134   -3.57927297965342
H         4.01396969206924    1.50680714830872   -4.41531546153635
H         3.01478692136352    3.03455633401988   -2.13059113798150
H         4.61516658491244    3.20677461919872   -2.97628181083646
H         5.35301018503000    2.56295611979466   -0.90369742345688
H         5.28854134004815   -0.25825586717753   -1.05118331442911
H         6.11701788071160    0.75733435178824   -2.34167593270730
H         0.37146492375765   -0.36666583704830   -0.69228023363577
