33
 energy: -44.345457429039 gnorm: 0.121993550736 xtb: 6.4.1 (79825abcba525fcdf90b791dcacef51065a7a4e7)
C        -0.09969563117560    1.84090662359131    0.58563653420498
C         1.13164222856007    1.14925983462936    0.06002688003714
N         2.29785856018144    1.57537192185557    0.44024287337957
C         3.41508464772172    0.76587692534135   -0.12015509569108
C         3.33942790756549   -0.70379864520045    0.38409699979426
N         2.86840065675189   -1.44525041688825   -0.85265016966591
C         1.90977205993134   -0.77075749612209   -1.41643475641445
C         2.03420108802080   -0.65367897554574   -2.93917395531991
C         3.55753162389614   -0.45035718809173   -3.32628725505513
N         4.40345140448789    0.56467689913001   -2.63496129685088
C         4.05808125668345    1.99028742640625   -2.72524054893379
C         4.65776262985606    2.59376978688138   -1.43419997662580
C         4.76199288493504    1.40828946907302   -0.46847103889514
C         5.35286599961534    0.41044163954146   -1.51333619718089
N         0.96469801399902    0.05168352708397   -0.78314604755741
H         0.15090191472161    2.65669354885884    1.25510906766650
H        -0.71722433551421    1.07555408733979    1.05969490462362
H        -0.61710078665666    2.28369646829333   -0.28415531260152
H         3.11961763113732    0.69699611070347   -1.13939509111566
H         2.71350737096934   -0.72507850665526    1.28599583072505
H         4.27584487753261   -1.17952212316178    0.69384739074699
H         1.38457651624034    0.17023536556511   -3.25946974585018
H         1.61909822420647   -1.53524136154134   -3.43854931302226
H         3.69304772526330   -0.16769080012256   -4.38173399488086
H         3.96371988501779   -1.45554094075955   -3.15553194256490
H         2.97921296022975    1.96473052207187   -2.91672824770496
H         4.60112994145545    2.45012025780163   -3.55830044992715
H         4.06643683260625    3.41484465496467   -1.01862118202939
H         5.68687492597984    2.91325892551894   -1.64461028566289
H         5.32772818076334    1.59114715930619    0.44919190181108
H         5.26142586233082   -0.61595844447787   -1.14877999251670
H         6.40540097355820    0.62001167440723   -1.73709561253929
H         0.00313225872746   -0.04577331324552   -1.10961912492093
