33
 energy: -44.341651187124 gnorm: 0.116046092084 xtb: 6.4.1 (79825abcba525fcdf90b791dcacef51065a7a4e7)
C        -0.06963468829908    1.83015517982190    0.22104479398836
C         1.37689929361589    1.45067076873689    0.03566745668594
N         2.42595198235252    2.20437660033847    0.16837852870531
C         3.50792177524665    1.31033789751637   -0.32917383388415
C         3.88592676327953    0.24219669267506    0.73671875650833
N         3.35743862871400   -1.03161589252377    0.10484634307513
C         2.28997019860418   -0.89224176885319   -0.62511841654035
C         2.26830528923424   -1.66490218397485   -1.94816457351627
C         3.48801020549273   -1.21847850787309   -2.85632655901101
N         3.98734827511045    0.18087677119184   -2.72876345282455
C         3.35693679411191    1.43163989987702   -3.17370076765959
C         4.00706618401698    2.58045109094074   -2.36861748498594
C         4.65646591222746    1.85042095281037   -1.18785675055396
C         5.17639836801790    0.59450754230521   -1.95527207260374
N         1.35133552125039    0.12777404112690   -0.40339456712524
H        -0.10068774576117    2.89916686753870    0.40201616410244
H        -0.40105325907363    1.19788348097938    1.04701802551885
H        -0.64598336193734    1.66809182838918   -0.70732284727990
H         3.00824820628993    0.77647720151100   -1.10132315831563
H         3.36577557440636    0.44988881533801    1.68115381408161
H         4.94963680493296    0.08869004854587    0.94669860109063
H         1.38647794258001   -1.60775936596543   -2.59820421657338
H         2.39912969669611   -2.70359186411355   -1.62746673726735
H         3.16360797587239   -1.31515556711152   -3.90401423186884
H         4.26850793026300   -1.97419335449369   -2.70057346572900
H         2.28780264910493    1.27876304756419   -2.98699687648139
H         3.42169475548704    1.63113868794176   -4.24903492188444
H         3.24195402966414    3.26449101257504   -1.99016187097154
H         4.70274916188757    3.22263162023559   -2.92453770297980
H         5.38557975672711    2.41386475754554   -0.59919494709438
H         5.47449384821315   -0.21462772568678   -1.28355869569356
H         6.06314218211022    0.81672272170080   -2.56035352967166
H         0.41210968434626   -0.15686282462494   -0.68183288559784
