33
 energy: -44.339012119675 gnorm: 0.123599034959 xtb: 6.4.1 (79825abcba525fcdf90b791dcacef51065a7a4e7)
C        -0.10272205372021    1.66432107173695    0.77830725881416
C         1.16061366174566    1.24819413880649    0.07003122948044
N         2.30318406186066    1.64026584749988    0.54648572231759
C         3.31336799930822    0.81165828955678   -0.16797918528949
C         3.25691232931498   -0.65170169731272    0.35674047145143
N         2.70946824372924   -1.43118317701105   -0.82388417362535
C         1.91134398278326   -0.65205800551561   -1.49300609749683
C         2.08897315554554   -0.67522760966237   -3.01479308924911
C         3.63704974819603   -0.54552050285498   -3.32842869962491
N         4.50633174582171    0.52555688777792   -2.76190590439868
C         4.16116046430760    1.95352405102230   -2.72237340504597
C         4.52113752541388    2.55878656357722   -1.34590390953707
C         4.72718910216538    1.32628369051823   -0.45858247242066
C         5.28421202546872    0.32784903899225   -1.52132808385619
N         1.06408116785369    0.34775090011595   -0.98985938742506
H        -0.33275393952564    2.72290701967806    0.83291514836904
H         0.18348863383899    1.40699962668527    1.79992688603120
H        -0.99105418620328    1.10848055166879    0.42871302771090
H         2.99305424178179    0.60538593313637   -1.16082675881181
H         2.67550101725900   -0.83500149321244    1.26998355102543
H         4.25037667933234   -1.03696440311233    0.60920058642049
H         1.52295716305704    0.17059869816875   -3.42423180634770
H         1.72565938273457   -1.61819455390894   -3.43628426704679
H         3.76991941681799   -0.66168704901409   -4.41520544818927
H         4.14842954619499   -1.41460003913376   -2.89514805536579
H         3.12482318170073    2.09291792381359   -3.05078150186985
H         4.76564739173961    2.45839642720017   -3.48397457499921
H         3.78783117672222    3.34129103618107   -1.13030144824655
H         5.45150140708525    3.12099316472719   -1.50006198334199
H         5.23817067211045    1.50962979233378    0.49056486979760
H         5.34741724663401   -0.69079364260624   -1.13000744581505
H         6.28126986406740    0.72121520315323   -1.75145082829912
H         0.28342664897419    0.57763216303732   -1.60502141684959
