33
 energy: -44.344619702070 gnorm: 0.116433181781 xtb: 6.4.1 (79825abcba525fcdf90b791dcacef51065a7a4e7)
C        -0.08652638676823    1.55904922247751    0.71556881084880
C         1.24885000141800    1.22764742050034    0.10093359048752
N         2.35564826775495    1.66090662464619    0.62388701708056
C         3.41121726600922    0.86029681823726   -0.05605429776165
C         3.27127027118438   -0.59763216606178    0.46815778644514
N         2.74188217460244   -1.32696463914078   -0.75208126092774
C         1.90633980583053   -0.65572425865244   -1.48901261740184
C         2.06134045674457   -0.74237024564476   -3.01098234902845
C         3.59480552224679   -0.51690424414732   -3.34171235544995
N         4.46671474557450    0.51627348451934   -2.71232842872794
C         4.23188831656644    1.95738619020596   -2.87920252319166
C         4.58323147629240    2.58234060939314   -1.50931770420057
C         4.75767222099175    1.43846230554845   -0.50434369686387
C         5.23125062955603    0.30371142619997   -1.46592492291824
N         1.06568741714935    0.33151147497930   -0.95114840290919
H         0.02223082875773    1.79758624470258    1.76807670462399
H        -0.77875432912662    0.71784344689521    0.64464029389240
H        -0.54256567591895    2.49515728000198    0.34673461601813
H         3.01667425120311    0.75839372067039   -1.03832058622780
H         2.50899645768761   -0.68140929590962    1.25401456379880
H         4.14797990695031   -1.14403348226635    0.83142171834976
H         1.47213688374662    0.00238057508258   -3.56018328313381
H         1.83093491434371   -1.76450048989912   -3.32878955602520
H         3.63040686411326   -0.32302224195872   -4.42493672339242
H         4.12187084227921   -1.46680126359867   -3.18538432873608
H         3.15027716633255    2.08345074512114   -3.00371172031566
H         4.62210566746785    2.42328961606631   -3.79079525811635
H         3.79789114741800    3.26865044015932   -1.17953708963653
H         5.47129667312803    3.22768672062502   -1.49239067831911
H         5.52174728474669    1.65591004233668    0.24699138492104
H         4.84996545854936   -0.64755975410411   -1.08584017418310
H         6.31618963328979    0.29981469814338   -1.62311880990660
H         0.14518562538897    0.37792842543071   -1.38842762393237
