33
 energy: -44.346116953647 gnorm: 0.122250322931 xtb: 6.4.1 (79825abcba525fcdf90b791dcacef51065a7a4e7)
C        -0.13210865693726    1.84602098963038    0.31456399550147
C         1.16948661731534    1.13344583200225    0.05203760728744
N         2.29773989203783    1.62987063300947    0.46045309396621
C         3.39977508503764    0.80395065982523   -0.10602444655158
C         3.38286819332689   -0.62679387926924    0.50440542874466
N         2.94498682954482   -1.42746488027040   -0.70734818504898
C         1.99832412108054   -0.83149625740583   -1.37098488168497
C         2.08529743761894   -0.95946943681141   -2.89544646844418
C         3.47822222849309   -0.38993836655437   -3.39256541744490
N         4.30520620360807    0.64037511677834   -2.70093136108782
C         4.07546313076705    2.09073902653569   -2.64211899865787
C         4.67437428448982    2.62454706592385   -1.32039706452803
C         4.78288165187300    1.35409677628540   -0.47007822704157
C         5.24558017836530    0.37344176769129   -1.59293189317096
N         1.05269699348144    0.02402752796567   -0.78404607292600
H        -0.56585143900544    1.43847338286576    1.22135672805996
H        -0.86096017503882    1.87987655361787   -0.49751161727937
H         0.09005376815508    2.90298898309479    0.54645042832112
H         3.05012152531547    0.63825915025582   -1.09657187380427
H         2.64597106269362   -0.73220115122785    1.31157503901448
H         4.35548307229026   -1.06383096280365    0.75371199077476
H         1.13173329785824   -0.55647694879784   -3.25841864433099
H         2.05941840907859   -2.02424428448546   -3.14926367888797
H         3.13787915443060    0.09605209033362   -4.32004187994697
H         4.10862179360137   -1.28444312007349   -3.47622118408065
H         3.02946229933342    2.40580301130105   -2.55326834923544
H         4.59445136548158    2.59101528138129   -3.46717159192553
H         4.05689278359853    3.42253784677589   -0.89794803713232
H         5.62450483945173    3.12030703365035   -1.55891730974416
H         5.52398871221799    1.36911159507672    0.33374607805896
H         5.14123814236343   -0.63257277571713   -1.17843565340589
H         6.28810955513514    0.61427082835883   -1.83157725527394
H         0.14972322051528   -0.00826785030051   -1.25763512141151
