33
 energy: -44.346742453230 gnorm: 0.112506388901 xtb: 6.4.1 (79825abcba525fcdf90b791dcacef51065a7a4e7)
C        -0.06942799170365    1.85345519661692    0.68076941959482
C         1.21442208913871    1.33830747384986    0.08311943988365
N         2.30385673532232    2.03025393353602    0.22643198584836
C         3.46723042301173    1.27245501251839   -0.31192163427926
C         3.79887688302580    0.14149794159799    0.70340448598639
N         3.30261918511736   -1.05924207216099   -0.07961062674882
C         2.22057833985879   -0.81654385174336   -0.75935153865730
C         2.17890969203661   -1.47799330879791   -2.14089884022466
C         3.50107889798495   -1.07801834464940   -2.91782932766113
N         4.31606357510555    0.16998969532837   -2.87220097430511
C         3.61899411446378    1.37848514091141   -3.33418493117832
C         4.11536403008491    2.51490299876116   -2.41073172551523
C         4.62747159070164    1.85595667620428   -1.12527635909668
C         5.27244066841945    0.62951090232356   -1.84390016308702
N         1.16538372541323    0.07089935593056   -0.49546209739415
H         0.04661309506538    1.83785614033064    1.75909777695782
H        -0.93528897756342    1.23269672444937    0.44248133577713
H        -0.37931726544479    2.85318510781714    0.32747417119907
H         3.08663269548933    0.70163666244145   -1.12445303165555
H         3.16199160396289    0.30230082379864    1.58327403653696
H         4.80568778133522   -0.13073315544992    1.03710631999629
H         1.34933299599967   -1.07795483258971   -2.73689215540805
H         2.15342600857902   -2.57009546210479   -2.21507320025412
H         3.26702580712275   -1.19689321879333   -3.98709105186868
H         4.10375827432092   -1.93794696620228   -2.59870397827794
H         2.54347571379717    1.28919413830630   -3.14296573763547
H         3.75097415161569    1.67044775934982   -4.38188527034252
H         3.34664071624087    3.27028471008998   -2.22365204286170
H         4.97524612116310    3.06103469249891   -2.82031796427061
H         5.27101538148242    2.48187204268188   -0.50103283908003
H         5.47891543009738   -0.16494715275904   -1.12212164823213
H         6.21589805658411    1.00850919545570   -2.25385893658878
H         0.25572221149646   -0.24312490825915   -0.83398224536240
