33
 energy: -44.341391330342 gnorm: 0.125917792274 xtb: 6.4.1 (79825abcba525fcdf90b791dcacef51065a7a4e7)
C         0.03897082856881    2.02574667729129    0.19394647364314
C         1.28234839029463    1.21984281128693   -0.08058024212573
N         2.41232078693665    1.62214634843095    0.41692402512277
C         3.47181865480441    0.70565884870533   -0.08808796498811
C         3.28140264660595   -0.67364824510090    0.60559358756235
N         2.79225554372084   -1.58131546397888   -0.50707720631634
C         2.09841060211346   -0.82202334676428   -1.30320359045899
C         2.22625383582452   -1.07516181372973   -2.80902616946147
C         3.43108843335767   -0.27617121686350   -3.45842586994121
N         4.37714755685638    0.66846074907480   -2.79778329025050
C         3.81944950047764    1.99013012196444   -2.47847278761544
C         4.49412225612756    2.61138640753144   -1.23370302308638
C         4.81966451981754    1.30032003125812   -0.50983348591537
C         5.28363138276729    0.36582234860455   -1.67087756416485
N         1.12660169259673    0.11330169997228   -0.91412355094086
H        -0.81024916828903    1.36276497679980    0.31957120677009
H        -0.17358293286575    2.74495701681314   -0.59939766749819
H         0.17772937971138    2.58965051660001    1.13366309204137
H         3.11393353550994    0.50905858344161   -1.07000551364724
H         2.55162591511414   -0.65771178230778    1.42585135520368
H         4.25074788930488   -1.10220732811821    0.88098747307823
H         1.26503058932625   -0.83241418807046   -3.27866408094761
H         2.44784128287146   -2.14026059254869   -2.93272729827483
H         3.01895621152696    0.34322500768936   -4.27004651274259
H         4.06472518576705   -1.02527100522643   -3.95025371020967
H         2.75583924976648    2.04802591577576   -2.22028912461026
H         3.87874437660780    2.71542677206972   -3.29747571136797
H         3.78308271319504    3.23083077598166   -0.67940408255981
H         5.34817512836365    3.26121993755479   -1.46549603168972
H         5.43748867301914    1.41551661132382    0.38494117702652
H         5.23897631992603   -0.70242010859305   -1.44366922053734
H         6.34057924213140    0.48685261537244   -1.93551059560544
H         0.23285866962736    0.22429160417943   -1.39328517026381
