33
 energy: -44.347514742120 gnorm: 0.110793646175 xtb: 6.4.1 (79825abcba525fcdf90b791dcacef51065a7a4e7)
C        -0.05628290738592    1.78050258008112    0.60653313087117
C         1.26557849789226    1.28588317471928    0.07845379323057
N         2.22385110682897    2.16011715847835    0.01824756749218
C         3.41171342880489    1.39751817437946   -0.45603933614773
C         3.74882403361217    0.38230165811739    0.67339958554094
N         3.46136146819828   -0.96789296969204    0.04451112096998
C         2.32269396991400   -0.96319033580911   -0.58411974157531
C         2.15834471532267   -1.50957195140776   -2.00622419624757
C         3.48069892882432   -1.17157943606920   -2.81175058177073
N         4.21451007301930    0.12461135396508   -2.88397716022156
C         3.61563012841567    1.37153251189364   -3.38029025129453
C         4.05648107359595    2.56835358334673   -2.50629698525517
C         4.62396234353645    1.86306901508417   -1.26960842327466
C         5.20409736386057    0.54421227834875   -1.87013717989609
N         1.30206097159828   -0.07997520932891   -0.19828544135760
H        -0.07141929071153    2.84969700472509    0.78845366889438
H        -0.20834457473428    1.40939779520109    1.62191287702604
H        -0.86107902652193    1.65872268289454   -0.14031468458105
H         2.96575843392101    0.86701046944974   -1.26262548305962
H         3.08556709525518    0.54004832748887    1.53413013373618
H         4.81749111608539    0.42598799224044    0.90829754099540
H         1.27087457735967   -1.02909835066988   -2.43631510384078
H         1.98036556235855   -2.58829296718647   -2.06557705024523
H         3.24985450963858   -1.45476233595678   -3.85037997617678
H         4.17435868836179   -1.88239882915978   -2.34472533277815
H         2.54657908578185    1.28573181919912   -3.60622298386858
H         4.05584920641671    1.50051938726651   -4.37523067810927
H         3.27647227825276    3.27842610552425   -2.21660894082242
H         4.90025534236126    3.15128586079610   -2.89828278582688
H         5.33953443961628    2.48005867334244   -0.71926401453609
H         5.30641237470622   -0.24556926562926   -1.12144738712468
H         6.18040360854632    0.73694449315232   -2.33002646673816
H         0.43301215591962   -0.49466355766029   -0.53515179900453
