33
 energy: -44.335328666522 gnorm: 0.121104558079 xtb: 6.4.1 (79825abcba525fcdf90b791dcacef51065a7a4e7)
C        -0.03931269798071    1.98120226147797    0.26567231418468
C         1.30936302764599    1.31270593790421    0.19481912819618
N         2.32671854302803    2.11960857892431    0.18522086801951
C         3.47401349228071    1.28703437865528   -0.27091142813535
C         3.90738006538635    0.20647770344953    0.76084973049710
N         3.42281259823744   -1.02620134909511    0.02135147397727
C         2.28810111363760   -0.88066442691676   -0.59752765095315
C         2.25062463641768   -1.65968141275219   -1.91648657373256
C         3.39883232640577   -1.14789716814662   -2.88159192099776
N         4.14604437591203    0.14182084022364   -2.83568295863732
C         3.48487978828608    1.37653072274245   -3.28082241466940
C         3.97811052976695    2.55713303209517   -2.41278089270862
C         4.56592163903076    1.85424219723058   -1.18425230788997
C         5.19825919479996    0.63238728685101   -1.92167641125390
N         1.24513790548995    0.00682748707910   -0.28895902649427
H         0.17332158526998    3.04474167006149    0.27876829310082
H        -0.56917869527059    1.74767108455538    1.19116826550552
H        -0.75923048136818    1.66859639436362   -0.51169809375100
H         2.98447492062569    0.75262221236693   -1.04914732891823
H         3.35751499009339    0.23446530623255    1.71085812155530
H         4.96374636973795    0.00192452744271    0.96427809786341
H         1.36144432807703   -1.70620675952919   -2.55729080584593
H         2.50473124697459   -2.70968579258347   -1.73827601604638
H         2.99164958815121   -1.16568081860470   -3.90439135116042
H         4.18151340500234   -1.90800305039305   -2.76247002164253
H         2.39085610813608    1.39732547865674   -3.34372911217866
H         3.88699786271665    1.73624777904764   -4.23436402133011
H         3.22390202955945    3.33085465100613   -2.24231017957880
H         4.78753563110540    3.04817842739416   -2.96876951606334
H         5.24607426102310    2.44214832079745   -0.56187185262972
H         5.70892214581908   -0.10613920487390   -1.29832930261098
H         5.94826191617089    1.03216872524570   -2.61412746806760
H         0.32000356930554   -0.28161407475193   -0.60773657283686
