33
 energy: -44.336186371073 gnorm: 0.131500681775 xtb: 6.4.1 (79825abcba525fcdf90b791dcacef51065a7a4e7)
C        -0.02485382044312    1.88947274926190    0.37376377822899
C         1.29163228252001    1.26031575058136   -0.00287866560575
N         2.44051940794118    1.58406579233406    0.50843389037591
C         3.44937268595517    0.64742130790262   -0.05939914147480
C         3.29348666784751   -0.80507618798721    0.47528860042289
N         2.79816174306816   -1.53782631884760   -0.75714453123248
C         1.93613179069280   -0.80468900243583   -1.39837505023715
C         2.03827925177925   -0.74290340922413   -2.92601148321616
C         3.48484370835603   -0.31093768969117   -3.40828656574037
N         4.40478752302894    0.61488057275415   -2.68691983290284
C         4.07346007123021    2.04606726149795   -2.64541039955822
C         4.48979974712999    2.53595165676911   -1.23925641783186
C         4.79774620487555    1.29016978039188   -0.40136835040888
C         5.25311491459450    0.29998660381880   -1.51884369207584
N         1.11295547821284    0.22819948128153   -0.92282177111461
H        -0.73863600255115    2.02271341547669   -0.43200469295392
H         0.10273141025439    2.80353791467064    0.95689705895027
H        -0.31515135290586    1.15259846536482    1.14386275882141
H         3.07235999258935    0.72909810457302   -1.05040157618974
H         2.56712199910214   -0.89844488206978    1.29341298414659
H         4.21409903243546   -1.31921697317334    0.77069848828811
H         1.26034194025655   -0.06223643366646   -3.29335645169316
H         1.80858008705515   -1.75597860552085   -3.27206829982404
H         3.23280134729025    0.25827949969966   -4.31641605095168
H         3.96730211455000   -1.23840014423531   -3.74233436417897
H         3.00156375193172    2.17635357914727   -2.83340308462949
H         4.66456560845837    2.59541909488068   -3.38645271327334
H         3.69400153399372    3.15691532211784   -0.81777663956390
H         5.46781182887088    3.02464261303281   -1.33971259992390
H         5.35985918629885    1.64133854632871    0.46829142682453
H         5.40411888991538   -0.75162066076495   -1.26178414233352
H         6.23088676031372    0.66326366672750   -1.85620068858966
H         0.25260173313298    0.23816819167500   -1.47089409441807
