33
 energy: -44.345452960163 gnorm: 0.118757847868 xtb: 6.4.1 (79825abcba525fcdf90b791dcacef51065a7a4e7)
C         0.01640125075466    1.92124747342993    0.73628049928573
C         1.23329881382371    1.30673893607839    0.09411752714125
N         2.23975589837472    2.12725083680665    0.09488813812483
C         3.42303885519567    1.37329960601617   -0.40403184759328
C         3.76213258255221    0.29056635217589    0.66022589851733
N         3.29239318720657   -0.98879506528629   -0.00591238612485
C         2.22683405342836   -0.85620053374855   -0.73991848752684
C         2.22469554684300   -1.55946015669656   -2.10129497689994
C         3.63868338951157   -1.21648243954462   -2.72957598928720
N         4.32032042739541    0.09763549485662   -2.90921742388471
C         3.60881292575970    1.30174184947645   -3.36052797320855
C         3.99731315333432    2.55383478854651   -2.54081747159410
C         4.56660150045002    1.90602528947340   -1.27388671597290
C         5.22960542609804    0.62517037031226   -1.87088838293597
N         1.17254863073489    0.02236297152971   -0.44455907689304
H         0.25555952022206    2.91543042015865    1.09808776844233
H        -0.37196128669413    1.40300633606997    1.61516513232150
H        -0.80580736955073    1.98606948778418    0.00137922442034
H         2.89504997195433    0.80451375474791   -1.13108472607859
H         3.24814094016022    0.51399883427619    1.60444058151157
H         4.83247357684575    0.12125385420943    0.81782763523670
H         1.30252683601173   -1.22679263342010   -2.59360940795118
H         2.06324944223563   -2.63398667610300   -1.96651260827715
H         3.54126047917669   -1.59095541314866   -3.76035797015352
H         4.32971951143753   -1.92752317360923   -2.25901164308577
H         2.52994152121017    1.11749652313757   -3.41855937796679
H         3.94006714769904    1.44199550279345   -4.39538857158791
H         3.22346857998841    3.29214699133698   -2.31148030278988
H         4.73406246425933    3.15355338145507   -3.09123184753596
H         5.25479215486850    2.48530970702691   -0.65225835639447
H         5.30939274877160   -0.13386696054352   -1.08842051157111
H         6.20988709360807    0.86447881152219   -2.29937066837371
H         0.28181308434604   -0.46531069811769   -0.34731824562474
