33
 energy: -44.345463661621 gnorm: 0.111023109066 xtb: 6.4.1 (79825abcba525fcdf90b791dcacef51065a7a4e7)
C        -0.05344047662814    1.84208652660750    0.37492466797058
C         1.35018155380280    1.41646438287070    0.02920121788446
N         2.37612653636135    2.21213304456379    0.05253591683413
C         3.56224044814846    1.37206905906109   -0.27142157418772
C         3.74683540812674    0.30538920130158    0.84574411737864
N         3.37111755517726   -0.99157728013488    0.15445908441741
C         2.37021350745704   -0.80345248947575   -0.65459139857198
C         2.29637843328395   -1.56469463266410   -1.98236524523149
C         3.54309672238263   -1.19968027872492   -2.89021457027545
N         4.16506484991766    0.15475209683716   -2.93996032855880
C         3.33900818068784    1.34076687603640   -3.20603471469955
C         3.90494162153334    2.49949689792074   -2.35300567404458
C         4.67989046525884    1.81592133411419   -1.22117589320107
C         5.18178896136007    0.51997064501048   -1.93193902588248
N         1.32229891459567    0.10844991336262   -0.45226052258189
H        -0.07543388087571    2.92648721146625    0.38453509027933
H        -0.40203686344975    1.53012132776103    1.36133016791795
H        -0.71643248118780    1.53422839619941   -0.45331066760859
H         3.13679848796600    0.85374743291460   -1.09679259855582
H         3.06327081906865    0.42640484560857    1.69647645890785
H         4.78165976861888    0.03919261070051    1.08535378773891
H         1.45303985356976   -1.31303339315460   -2.63725681561179
H         2.40513463558422   -2.65327667791687   -1.93764848242794
H         3.12575948429784   -1.35378650499433   -3.89734595366931
H         4.41194805109253   -1.82127989683983   -2.63871519188546
H         2.29572588892152    1.08830554032412   -2.98444313430795
H         3.44838312545961    1.61954621619549   -4.25991141818184
H         3.13535574579114    3.08733510612879   -1.84436071495915
H         4.56930755428924    3.15560405111606   -2.93055154779308
H         5.51349583672630    2.36243879644377   -0.77171023541230
H         5.40929652422750   -0.31443321143493   -1.26353034216944
H         6.10809361838226    0.75802430864953   -2.46776351564579
H         0.39521990346130   -0.28704185998523   -0.60974693139995
