33
 energy: -44.326424490498 gnorm: 0.126468220321 xtb: 6.4.1 (79825abcba525fcdf90b791dcacef51065a7a4e7)
C        -0.00283100944398    1.82417774091627    0.82859398318459
C         1.23231918326986    1.29726896296465    0.14477758572489
N         2.22213993895661    2.13355863351864    0.06069009227270
C         3.38278222818701    1.33598729628939   -0.42336735289683
C         3.62019369024239    0.32730800070175    0.73686636747532
N         3.30948978207301   -0.96481629610330    0.00540287477942
C         2.22901728398930   -0.80488917660676   -0.70083011906963
C         2.22885243197713   -1.30172342554235   -2.15034049076014
C         3.68441943914155   -1.24478863911903   -2.77469253528301
N         4.37960604149316    0.06323203488556   -2.94674934435281
C         3.64188039315099    1.23820186588091   -3.43152044107497
C         4.01107549565226    2.44305069136500   -2.53562494017668
C         4.57432693361993    1.84286005330893   -1.24280672945281
C         5.28661470013306    0.63624184116287   -1.93076976714975
N         1.13351113202851   -0.01130890840653   -0.32569625973379
H         0.06097772763928    2.87748974174988    1.07951864198909
H        -0.04845371261276    1.20016594482463    1.72322541382916
H        -0.98811691820447    1.50809988588378    0.44179266432148
H         2.90016042491188    0.83040111315156   -1.22483743902011
H         2.92848053747545    0.53935103092383    1.56283338918049
H         4.62957628188308    0.36434111677034    1.15984415152218
H         1.43553083930098   -0.86433702784289   -2.76902481814128
H         1.85805588034043   -2.33123188879397   -2.18855846682182
H         3.60622418984822   -1.69723544994265   -3.77539733889920
H         4.41608415639088   -1.83391036042210   -2.20711611811815
H         2.60676284987162    0.88080476185334   -3.47708879885841
H         4.18868095764100    1.58051770303393   -4.31705187245894
H         3.15599140192364    3.10934435106137   -2.38926981777332
H         4.79375630888383    3.03980510552950   -3.02215637680765
H         5.29340971626570    2.41501323542453   -0.65021976060234
H         5.57578622149844   -0.20118487332986   -1.29056981295414
H         6.18261749827777    1.05634244393552   -2.40248177065232
H         0.22543259820942   -0.06213409890182   -0.78775836404998
