33
 energy: -44.342902336322 gnorm: 0.128363783629 xtb: 6.4.1 (79825abcba525fcdf90b791dcacef51065a7a4e7)
C        -0.04940171016780    1.88415122509594    0.42294690163556
C         1.24508601771796    1.22683026432024    0.01913457676885
N         2.38422158539709    1.66153024175819    0.46590334123923
C         3.42857011389894    0.76130045976536   -0.09663080654842
C         3.29361374644165   -0.64762608032038    0.54885598148299
N         2.80709120531794   -1.48396903119246   -0.61947070396223
C         2.01021384931571   -0.75679954404715   -1.34608858983019
C         2.09210694275958   -0.83902243577079   -2.87398176025602
C         3.57888873080652   -0.47685223897006   -3.28634692536453
N         4.43568239876582    0.63818686968720   -2.78996155076699
C         4.01924132681216    2.04720827681295   -2.75784059016475
C         4.33023881378688    2.51920537562427   -1.31871107277338
C         4.80056457920608    1.31397389177985   -0.49708423374918
C         5.31358809477090    0.37250413669020   -1.63155155219941
N         1.08028572118268    0.19956801656964   -0.90879744745254
H        -0.40505937174565    1.13471125184707    1.12176610194713
H        -0.80175541641865    2.00629790537019   -0.35864226515527
H         0.16998049929127    2.82181207647481    0.96421612452018
H         3.10145583935781    0.59756489733365   -1.09517094651684
H         2.68799052543473   -0.66374863666039    1.46461327858029
H         4.27504602349046   -1.07644478496001    0.77697893497428
H         1.51933905104040   -0.03899253071992   -3.35908526154397
H         1.86652716142000   -1.83480100826018   -3.26942729098984
H         3.58109193061241   -0.48156495614689   -4.38734903940444
H         4.30656279841612   -1.29059787807386   -3.17299288592996
H         2.94432210523148    2.00052655509743   -2.96675918290319
H         4.45458910947196    2.65543286041563   -3.55838544514432
H         3.44608033554410    3.02238210495893   -0.91670008132767
H         5.11687464921143    3.28237808110121   -1.38343672748940
H         5.44684701232300    1.50400343582016    0.36419761502659
H         5.32542169885560   -0.65850758535221   -1.26873693167235
H         6.31196896798201    0.67827273536175   -1.96555596027099
H         0.13272413170590    0.03895755526612   -1.25088298736953
