33
 energy: -44.346178991576 gnorm: 0.117366659240 xtb: 6.4.1 (79825abcba525fcdf90b791dcacef51065a7a4e7)
C        -0.06345993071059    1.85844380878907    0.42685685707235
C         1.30982735955534    1.34590350255341    0.07725973073576
N         2.35250215486350    2.11774823448730    0.13454155590615
C         3.47534736700312    1.27841003989080   -0.36770558920760
C         3.77614906074907    0.27670108154073    0.78383160475945
N         3.38937744053222   -1.04488700131871    0.14745624122833
C         2.32230055958074   -0.89752487503973   -0.58151141857022
C         2.30643882734004   -1.52634997028656   -1.97874153374543
C         3.60747941575379   -1.22010185930527   -2.83035049908191
N         4.12369430585139    0.17539636929293   -2.92991412828963
C         3.43547474990056    1.41606395279156   -3.31318169811624
C         3.92224925273318    2.57783334932306   -2.41655640727874
C         4.59284250824997    1.82031308768631   -1.26532765086431
C         5.18668588842376    0.56671332050527   -1.98115736907490
N         1.28416409144202    0.01630809719375   -0.34107283396527
H        -0.06995835569228    2.92679038730492    0.23952221445471
H        -0.17633578782563    1.74433119706459    1.50670633383320
H        -0.90033860214102    1.29312810590391   -0.02076020390305
H         2.94629344288687    0.74105722328526   -1.11753849564299
H         3.14879857555745    0.57604008965005    1.63381888549530
H         4.83909157614233    0.24857555383747    1.04555099062753
H         1.49656391817031   -0.98895855500821   -2.48741570658342
H         2.20145533723446   -2.61608646000612   -1.99580640517527
H         3.47456157263996   -1.53721679757989   -3.87629680524863
H         4.46694927633527   -1.73974019581262   -2.38782568857422
H         2.34029908355462    1.39678299936318   -3.35185974985684
H         3.71223188923182    1.65855686115756   -4.34514079479897
H         3.07890397040243    3.19025245331768   -2.08452109922894
H         4.78202061064997    3.10204242543666   -2.85406752770852
H         5.41955342377071    2.29002738779207   -0.72540527805578
H         5.19694680689244   -0.28148060575566   -1.29179430509909
H         6.13411289864676    0.79896382946794   -2.48141680870063
H         0.41415614421989   -0.25301711586023   -0.80068277976170
