33
 energy: -44.335397392700 gnorm: 0.115682360918 xtb: 6.4.1 (79825abcba525fcdf90b791dcacef51065a7a4e7)
C        -0.02633127802809    1.89801815389927    0.52614511780907
C         1.25932095625045    1.35103553654135   -0.03842733737162
N         2.29924760077740    2.12547446250204    0.03223492783326
C         3.50216868106782    1.32204427921731   -0.32132266399240
C         3.82889680005226    0.26323509133235    0.77051625741546
N         3.32590586931993   -1.02134262657550    0.13962708336216
C         2.31523673702044   -0.84464354097450   -0.65980262364275
C         2.22451718344602   -1.49131950521198   -2.04598615132939
C         3.59784504478041   -1.19448250726644   -2.77919195644140
N         4.19119425885097    0.17305718994641   -2.81891517993242
C         3.36854356588635    1.32665009385800   -3.20912730526853
C         3.91515244554907    2.51620646876248   -2.38646769826961
C         4.63463194159975    1.84036312256184   -1.21410046241336
C         5.29927531002216    0.64173951857752   -1.96117821090124
N         1.23100977391417    0.02818831362025   -0.47746992774733
H         0.08514891653629    2.94896277237139    0.28203757193186
H        -0.09594507962189    1.67803096768870    1.59319577058718
H        -0.93242399214298    1.54960039629857   -0.00102644014130
H         3.09528007651164    0.72763107172983   -1.10363340466144
H         3.43521632675758    0.52604272416500    1.76127287488567
H         4.91738299859051    0.21366162389672    0.87948935807023
H         1.33394099150812   -1.07032525013696   -2.52876373627337
H         2.07655188741747   -2.57337812179793   -2.12404887377155
H         3.48401486393732   -1.44883838778902   -3.84435790433992
H         4.24069619748444   -1.95649583255223   -2.32025978128589
H         2.32240186366422    1.16279806679205   -2.92625357799793
H         3.48040918289711    1.32982653090626   -4.29899559941813
H         3.11699446185190    3.18340983472756   -2.04835621851882
H         4.69859896377809    3.02840046491705   -2.96030285622124
H         5.43203611989007    2.43067935285653   -0.75445717815652
H         5.39762486424001   -0.29336338731511   -1.40380080168133
H         6.24434815603327    0.77255534519774   -2.50112476161572
H         0.38763665568057   -0.19973780768999   -1.00421717943239
