33
 energy: -44.344106212561 gnorm: 0.131414635971 xtb: 6.4.1 (79825abcba525fcdf90b791dcacef51065a7a4e7)
C        -0.07155304936284    1.92345202406398    0.44449677355408
C         1.27841798602623    1.33110194635058    0.13219357797328
N         2.30239250619580    2.12821539152127    0.17996985089434
C         3.45025598411490    1.34322872660446   -0.35269096691089
C         3.79072694985552    0.33993101613498    0.78634970026511
N         3.50954682855056   -0.95103637990006    0.04102971734143
C         2.37946254358158   -0.83414678671004   -0.59222287743466
C         2.37340931993337   -1.61866552614060   -1.90843650234971
C         3.47726864877109   -1.20921185243905   -2.96936751892803
N         4.13891645152557    0.12549897442616   -2.90172703212069
C         3.45321604061472    1.36653793132114   -3.28829333048968
C         4.00257736973260    2.50508765338931   -2.39806800791193
C         4.64423019517865    1.81748767345048   -1.18796560146051
C         5.10520851016987    0.47646330457229   -1.84044330758552
N         1.31322177666522    0.06924694235299   -0.45941044871967
H         0.06757571442786    2.97427540358426    0.67452790311825
H        -0.40869562006532    1.42298029429733    1.35427722890767
H        -0.85772241395138    1.68499746332088   -0.29400572591828
H         2.95272738858985    0.82528771857094   -1.13697274234001
H         3.25816501814071    0.57159937131407    1.71820720686169
H         4.85679204582852    0.38294282301379    1.03290612917162
H         1.38926608054783   -1.51938915876553   -2.38282304856195
H         2.53405604145712   -2.69089983229220   -1.75564712481366
H         2.91208639399300   -1.13523412026149   -3.91134895807602
H         4.33059628616868   -1.89479059573995   -3.04908185772291
H         2.36202624190152    1.26881296362605   -3.32042035087296
H         3.71786210763120    1.66434989386814   -4.30888502020072
H         3.19743333394776    3.19422637580146   -2.12720499000682
H         4.65636894354413    3.07804899925665   -3.06865715157408
H         5.38676704378601    2.45208302795183   -0.69651225100529
H         5.19923630310081   -0.28586213372197   -1.06276834064773
H         6.03176546282149    0.62301464848627   -2.40774628269092
H         0.48293108206689   -0.27676559609301   -0.94064207817716
