33
 energy: -44.336031820800 gnorm: 0.126859863097 xtb: 6.4.1 (79825abcba525fcdf90b791dcacef51065a7a4e7)
C        -0.11495658760906    1.88301258251210    0.50939885012855
C         1.27364506492201    1.43035324634192    0.13829419287576
N         2.38001152439210    2.10888804187928    0.18000764609473
C         3.48783327664991    1.26380857596451   -0.34543865975683
C         3.86810211746295    0.19437732625507    0.71835305364882
N         3.34537760843820   -1.07506843983367    0.07304112238210
C         2.29862795244425   -0.76543371998287   -0.63420990871776
C         2.22644402009016   -1.43484314731507   -2.01065646069313
C         3.59161548761983   -1.20526501790699   -2.78223478336214
N         4.26053306855682    0.11792640407849   -2.94198386661503
C         3.49776642189842    1.30757428781338   -3.34537102976419
C         3.84562078133122    2.44000300972039   -2.35179315190978
C         4.63671560033258    1.80503700399852   -1.20294717767002
C         5.27571851457909    0.62017710709428   -1.99310969932937
N         1.25156483812841    0.12824915447190   -0.35922171719365
H        -0.23887474668518    2.96027461073488    0.48387012920303
H        -0.49961204559345    1.40111585948705    1.41031685908987
H        -0.73220113994057    1.65835477287962   -0.37877164473590
H         2.93096042684800    0.81988093625070   -1.13519581919940
H         3.34228486635111    0.41170040297363    1.65746846098165
H         4.93169242681555    0.04087545804341    0.92894199482177
H         1.39277868576649   -0.94719231719776   -2.53088246218893
H         2.05697662577528   -2.51620025008464   -1.98262100467272
H         3.33342031758125   -1.56785126075839   -3.78925970378977
H         4.26719923971799   -1.87649429893191   -2.23672722226854
H         2.40690317567158    1.21477540261287   -3.39717098354638
H         3.95152576056676    1.69271419467778   -4.26521156971982
H         2.96213853742102    2.99407644625302   -2.02164527094706
H         4.46492714654389    3.11821248697457   -2.95338226113478
H         5.31368642848107    2.58373472693311   -0.84109226270116
H         5.63563135135677   -0.17081493721929   -1.33012102164578
H         6.22262429359008    0.84485882210764   -2.49779307992481
H         0.40854054267659   -0.29330247964983   -0.74947222223657
