33
 energy: -44.347318383363 gnorm: 0.118779384411 xtb: 6.4.1 (79825abcba525fcdf90b791dcacef51065a7a4e7)
C        -0.02841732572968    1.76695137381311    0.72403783675313
C         1.29471855247790    1.41463140556925    0.09473996860791
N         2.30643870209594    2.22860827335918    0.10250147507853
C         3.43212798789510    1.40036933451358   -0.41166393913862
C         3.71804512380530    0.32328661904718    0.67373213142709
N         3.27680931008537   -0.94620121302195   -0.02973965782533
C         2.24081566520717   -0.80297965800782   -0.80302310849107
C         2.25539331970031   -1.54531431519886   -2.14341535273273
C         3.70071141674893   -1.26511861557543   -2.73016773007948
N         4.30570129628475    0.08716813110613   -2.90079558946991
C         3.45827570213178    1.24409151227101   -3.22203446699556
C         4.00843267223886    2.50888634659318   -2.52331005295568
C         4.61083486399406    1.91098359274243   -1.24718944153796
C         5.16747567267935    0.56063073229962   -1.79789144363884
N         1.26699546338811    0.17280893122858   -0.53818426100539
H        -0.08924952036046    2.79822799007711    1.05459629730470
H        -0.12592233674000    1.21233108791651    1.65930606192662
H        -0.87926270490430    1.57641417805340    0.04575580527712
H         2.97342926381067    0.82169857131089   -1.17692933303606
H         3.13547221492904    0.45003265277732    1.59579238006742
H         4.76672725736688    0.17890220183395    0.95400663910734
H         1.48025231119431   -1.18591518839652   -2.83147421543951
H         2.13835488350865   -2.62586309749580   -2.01092116646965
H         3.58263950955033   -1.63596574293998   -3.76010178590688
H         4.49570743602213   -1.77105520210936   -2.16753982624269
H         2.40087173917347    1.16839188126793   -2.94374698678576
H         3.52002056262494    1.45782653362720   -4.29480742538573
H         3.19419890732519    3.23223689544100   -2.42170674059119
H         4.77740791705509    3.03599642140073   -3.10318070164385
H         5.41796436881574    2.42945039452424   -0.72246782659068
H         5.35178612172387   -0.28298420742504   -1.12773985496230
H         6.07733444532257    0.80545506267453   -2.35828042931166
H         0.30463817886817   -0.14805408129732   -0.64591814730653
