33
 energy: -44.343732107136 gnorm: 0.126399110635 xtb: 6.4.1 (79825abcba525fcdf90b791dcacef51065a7a4e7)
C        -0.01214214349211    1.89846639967894    0.52458091570864
C         1.28403521525869    1.35005651916728   -0.01393982311516
N         2.35805588474208    2.06977759381458    0.10721062376886
C         3.47949161397501    1.18337734256884   -0.31016053752177
C         3.71565570030450    0.02047167172266    0.69573078017364
N         3.24216983324147   -1.22500491822024   -0.02936242966556
C         2.24469404633676   -0.87517119718597   -0.78726807616694
C         2.22360267452064   -1.49440210399185   -2.18870764400990
C         3.53554874461076   -1.06101280775920   -2.96504751955863
N         4.16356574807973    0.28302474762903   -2.81350957543486
C         3.44666406642800    1.52015029244358   -3.15316914381356
C         4.05018947794773    2.58991539207353   -2.21404498810416
C         4.66791204105232    1.80345007200456   -1.05268756799832
C         5.20953183967451    0.54682574052162   -1.80376533670371
N         1.22334127162014    0.03680006595057   -0.47779157571553
H         0.19012578191042    2.91414253170631    0.20210516905220
H         0.05005559664186    1.84889871024037    1.61339312681585
H        -0.94723880255584    1.48153616285978    0.10976503907744
H         3.01454008306217    0.66967551056492   -1.11689841249515
H         3.08637867251226    0.27322073138781    1.55931586118057
H         4.78109144125442   -0.02150089725033    0.94516988024528
H         1.35160405304707   -1.29350566378832   -2.82329044636039
H         2.33303322393331   -2.57957085480466   -2.09241581877117
H         3.41008231798766   -1.06984700959211   -4.05885410867970
H         4.33129636917102   -1.75681052536136   -2.66976475423480
H         2.35741630354115    1.48435802295574   -3.03682603628041
H         3.66115716035989    1.75063798009243   -4.20255231711816
H         3.29128947129789    3.32867307986300   -1.94046916097443
H         4.85987210880776    3.12735727766738   -2.72491501537546
H         5.37249060057931    2.40331029527471   -0.47016254407524
H         5.67072147372316   -0.28215002558969   -1.26075248611902
H         6.05478401331634    0.89937296860282   -2.40632402048152
H         0.28452233551559   -0.23482057388453   -0.77025087684590
