33
 energy: -44.341910547066 gnorm: 0.130442180200 xtb: 6.4.1 (79825abcba525fcdf90b791dcacef51065a7a4e7)
C        -0.09077937037002    1.74338155039738    0.76912590547056
C         1.14423270432141    1.26785644539061    0.04839381938955
N         2.29593953253282    1.68331976051347    0.48101126095663
C         3.35515852424216    0.87250010878138   -0.18091682585921
C         3.36768452665781   -0.53978150169617    0.47119065245294
N         2.85841375311269   -1.35484766882652   -0.70246661445691
C         2.00210584223405   -0.65959072717574   -1.39175397963534
C         2.09239798970397   -0.94439080269675   -2.89463815809503
C         3.58726232260382   -0.59683100359006   -3.29000530601011
N         4.41991858718259    0.52319756768131   -2.76462392993905
C         4.05829420427523    1.94675141853688   -2.81480848878408
C         4.44250711099074    2.58881465818916   -1.46176388405576
C         4.74747696187803    1.39662894733443   -0.54822869760463
C         5.29926675122308    0.37050637469534   -1.58706218732211
N         1.06095964172187    0.26962062452319   -0.92118109850747
H        -0.44192519620737    2.69996265358352    0.39744041107657
H         0.21394812169014    1.82109822938940    1.81456304591269
H        -0.94984828819836    1.06917078192747    0.60254492833755
H         3.02188667969229    0.82202253156947   -1.18951852333741
H         2.68520455472205   -0.69685284243843    1.31688594915734
H         4.37561618325654   -0.85787776754422    0.75758795741074
H         1.28656901072812   -0.43735297763180   -3.43960476702741
H         2.05967493607203   -2.03367041081634   -3.00064531526281
H         3.55357893212254   -0.43797256885736   -4.37897828491938
H         4.20601250050449   -1.48193179549911   -3.09433859991336
H         3.07233945772656    2.12334742987811   -3.25976306805627
H         4.61903263281768    2.40952636975290   -3.63441123624622
H         3.79311183874262    3.37728777337591   -1.07044330190164
H         5.33662042901786    3.21262539866824   -1.59153082912280
H         5.43223610828585    1.57285188176491    0.28582706960002
H         5.13014125564243   -0.64746537996886   -1.22666000755844
H         6.36807591361546    0.47272060676265   -1.80845995452227
H         0.14148768357215    0.21607853865856   -1.35981051081808
