33
 energy: -44.349316706714 gnorm: 0.122527444314 xtb: 6.4.1 (79825abcba525fcdf90b791dcacef51065a7a4e7)
C        -0.09210897107416    1.82764734199554    0.55916530437437
C         1.13823795548611    1.15987309159006    0.00135019564808
N         2.28763156646794    1.56385418627896    0.45067173268499
C         3.41249053983777    0.76637472596596   -0.11168132779689
C         3.25135481087497   -0.66351989194346    0.47939993611916
N         2.78963885561967   -1.50909413000334   -0.69234387004937
C         2.00460297386776   -0.76051302290776   -1.41005379634971
C         2.10298945386631   -0.74928753921031   -2.93914461245627
C         3.62776392668390   -0.47396910734843   -3.27230366004902
N         4.46472184171539    0.62776973618332   -2.71599526886082
C         3.96636583688571    2.01019084605200   -2.73468819156683
C         4.56234301172286    2.60683197455657   -1.43876186713467
C         4.74556192130290    1.42833757151867   -0.47624346086184
C         5.31365203107181    0.42083815992691   -1.52447677875960
N         1.02184162276127    0.10166319255981   -0.89872113852089
H        -0.53400822408249    1.28873056280983    1.39030588279933
H        -0.86191171523447    1.92971408058143   -0.20818315226424
H         0.20725889029128    2.83108872417353    0.91100770381416
H         3.04596442635691    0.65363531905958   -1.10357039745101
H         2.64000818992318   -0.63429969902032    1.39102065777489
H         4.23135007864719   -1.11468754619812    0.66699498037168
H         1.46583320086563    0.02338936342157   -3.38684834200868
H         1.87306075219039   -1.78059677154533   -3.22615060967343
H         3.58105899787778   -0.24696662323022   -4.34864990967659
H         4.24908707240330   -1.36926218399982   -3.14211720730411
H         2.87392590650686    2.05254850315088   -2.81252341003218
H         4.38642748114663    2.55473161048378   -3.58754250275323
H         3.98917710614125    3.41651862199357   -0.97786681524641
H         5.56755449322162    2.96442005412728   -1.69779578159439
H         5.53916482135855    1.53551313528105    0.26827414358165
H         5.33063482717690   -0.62494493817159   -1.20697252269895
H         6.37903153292894    0.59886408170114   -1.71180279549555
H         0.10714429309360   -0.07563918750941   -1.31415328356692
