33
 energy: -44.341961406471 gnorm: 0.138051926730 xtb: 6.4.1 (79825abcba525fcdf90b791dcacef51065a7a4e7)
C        -0.02415966111887    1.90162699356879    0.44916610689757
C         1.22478596171291    1.18396995092452    0.00651848709265
N         2.35651689599903    1.61858323952546    0.47180617162263
C         3.41923206711548    0.74736083732972   -0.10189250349680
C         3.29464832391289   -0.66384710107194    0.54068936248169
N         2.88561896568192   -1.46965843630141   -0.67772109171704
C         1.94465832981411   -0.89730893589088   -1.36965437989023
C         2.17293414664272   -0.89001685989175   -2.88483146609033
C         3.63374610418028   -0.46220288228588   -3.32612047270495
N         4.40910771826001    0.66595462108144   -2.73461302469754
C         3.81624221004081    2.00941209125586   -2.67605734407895
C         4.44551519078555    2.56185840859275   -1.37628311333163
C         4.77167216643864    1.35109989545250   -0.49506499740221
C         5.34314126330464    0.42616202129973   -1.61510407101813
N         1.12289578128084    0.14907198067747   -0.92196914679877
H        -0.59675783066147    1.20858824730492    1.05606770252973
H        -0.55153929161309    2.18855975018277   -0.46263313682589
H         0.20829235710085    2.79172325100714    1.06072436948268
H         3.10699995617898    0.55203837255373   -1.09951755234688
H         2.56675529517852   -0.79353711779301    1.35247941537614
H         4.20697757610378   -1.12091894101865    0.93802491775603
H         1.40502590422563   -0.30941880316853   -3.41081544062643
H         1.86795565123881   -1.88832671595360   -3.21529163914169
H         3.56712522029588   -0.25452794040107   -4.40531716214493
H         4.16568999560928   -1.39512281380399   -3.09976510038271
H         2.73100397829496    2.16268625454865   -2.66953791772866
H         4.15975376612850    2.68561345493255   -3.46668268534931
H         3.73482235325254    3.23915956957255   -0.89387799118665
H         5.35940152553249    3.15892646081879   -1.49349844673178
H         5.38104746560053    1.60954806641938    0.37525961020546
H         5.35454713812674   -0.59074735253788   -1.21444849926462
H         6.34009634487625    0.66248727701022   -2.00503827889361
H         0.29963070446983    0.38145735030839   -1.47777744646241
