33
 energy: -44.350408405644 gnorm: 0.116394906063 xtb: 6.4.1 (79825abcba525fcdf90b791dcacef51065a7a4e7)
C        -0.19395723665037    1.66653946551852    0.63645236282070
C         1.14441955376524    1.20621567969417    0.11907121874380
N         2.31914066436369    1.68958367890974    0.38848149674952
C         3.41064897987809    0.88098846008476   -0.22168693776648
C         3.44138506468784   -0.51695369319938    0.46004132664389
N         2.94174033165570   -1.34121790344772   -0.71132736030642
C         1.91184871329929   -0.82051553861295   -1.31128970615327
C         2.00499786585457   -0.74077680417307   -2.83866967785442
C         3.50418492606272   -0.53217346430190   -3.30840913692905
N         4.41344227738221    0.47229137794679   -2.68542640899876
C         4.09626815219783    1.90022614638507   -2.82755000194295
C         4.61222451715256    2.58883658744215   -1.54294922729140
C         4.79894657203743    1.44813860474393   -0.53656813995261
C         5.31913642548012    0.35658138597823   -1.52372561147084
N         1.05925773336372    0.18211236194337   -0.82297152158783
H        -0.95742230661764    1.71863073068599   -0.13225335645441
H        -0.14682619119709    2.66304987960097    1.07982939048060
H        -0.46725104259492    1.02389689617111    1.49239033589661
H         3.04066523577867    0.71824259520859   -1.20531354295207
H         2.73526602936669   -0.66100175035490    1.28847171790690
H         4.43315237035054   -0.86817732215046    0.76364377202546
H         1.32405932820104    0.05158653833706   -3.17321317405722
H         1.62403385969473   -1.65258261498598   -3.31017254889860
H         3.49088549768932   -0.30288739390431   -4.38520240228944
H         3.95051170162031   -1.52796321940485   -3.19120920771037
H         3.04031531450440    2.11118665538358   -3.03184576186153
H         4.63441318592899    2.28264423604841   -3.70190303603363
H         3.97083583982510    3.39921731686067   -1.18456464778625
H         5.57948068412050    3.05998582683650   -1.76169982804427
H         5.42945744893901    1.60877985153667    0.34220887883004
H         5.29488292905984   -0.61894253019160   -1.03125783908862
H         6.35568225644731    0.55350896910648   -1.82139994859947
H         0.09362525153270    0.08565446518688   -1.13752037455910
