33
 energy: -44.345053558413 gnorm: 0.137838315072 xtb: 6.4.1 (79825abcba525fcdf90b791dcacef51065a7a4e7)
C        -0.08535558090551    1.94247780284437    0.47222296334689
C         1.24725964901164    1.34291035179920    0.10413434962454
N         2.31975340126091    2.07374674793153    0.14693105325947
C         3.42527933497329    1.23319847087995   -0.39048236612890
C         3.79871539202766    0.22660187338552    0.73523927803678
N         3.43162962940087   -1.05382296506565    0.00934586861829
C         2.29806132500020   -0.85958042004799   -0.59815332612509
C         2.28242678960915   -1.58387313976477   -1.94836821005975
C         3.52362418124251   -1.14663679761733   -2.83153624759189
N         4.17601833698379    0.19424550271303   -2.84645498652299
C         3.53488332227530    1.41350505705619   -3.35845917104880
C         4.00161948067220    2.54403749506617   -2.41260070735807
C         4.59034522728927    1.79625005911907   -1.21131978087232
C         5.25628819536752    0.57009009834113   -1.91105275955078
N         1.23583024888187    0.01227524699276   -0.31151488438546
H        -0.01700990385921    3.01754684984564    0.34550941347199
H        -0.43157409536160    1.68698568415115    1.47556440735946
H        -0.86512293137498    1.67687253938633   -0.26379708873334
H         2.92358665966015    0.81075665458238   -1.22758622261626
H         3.11474167463413    0.41801534940123    1.57261117413108
H         4.84239322797183    0.13212635439401    1.05295901136348
H         1.39385566946987   -1.50946751189833   -2.58738422918359
H         2.47306100596836   -2.64031700493724   -1.73290746616324
H         3.14542982425800   -1.14263962091180   -3.86555064551826
H         4.37209028786969   -1.81197917602240   -2.62668156754342
H         2.44487775235979    1.32560612901039   -3.28470871387969
H         3.82176394060432    1.54619336763118   -4.40747310186721
H         3.23566893380270    3.28563241532181   -2.16787104617088
H         4.80838814639138    3.04082969696753   -2.96734367075454
H         5.23879912834130    2.51911979026314   -0.70876080338843
H         5.64057268242831   -0.24546338547142   -1.29302557347214
H         6.02370461492653    0.98368512922492   -2.57575490370709
H         0.28738722849468   -0.35764597972231   -0.37712987132557
