33
 energy: -44.343505970930 gnorm: 0.127112268545 xtb: 6.4.1 (79825abcba525fcdf90b791dcacef51065a7a4e7)
C        -0.04967421348191    1.94446438114241    0.47562657964850
C         1.27453146948760    1.36713727433588    0.04666689008818
N         2.37386446789356    2.05673481876405    0.09269307072082
C         3.53781983631178    1.25681781932826   -0.37939045121049
C         3.87964380699663    0.20913338718765    0.71854128525939
N         3.39448834105706   -1.02202942007402   -0.02309424730066
C         2.26124279525189   -0.83109989045499   -0.63224362643114
C         2.29861995604799   -1.53441619100553   -1.99307930673542
C         3.66413505488041   -1.22069716327786   -2.73380953087162
N         4.10528698900767    0.19970700639546   -2.84171237718695
C         3.29492993965753    1.35802062206288   -3.24349251106992
C         3.95443785896994    2.51857906927856   -2.46326955489068
C         4.63215008176170    1.90832360812386   -1.23154136868551
C         5.19182929146910    0.63493022593322   -1.93992191767039
N         1.19438975182513    0.05692738194127   -0.42281370267450
H         0.08892565876236    2.85364085487875    1.05068233302335
H        -0.77944140433106    1.24962683784228    0.89571962597549
H        -0.62481451215748    2.18427277056969   -0.43652163591776
H         3.16326547080283    0.70732714222309   -1.20924858020391
H         3.38584444874731    0.31585252119177    1.69343823704104
H         4.92669320340615    0.08129923568392    1.01261756662754
H         1.48866718136501   -1.12214580097662   -2.60744560077228
H         2.27826085068915   -2.62814604152930   -1.94640067232195
H         3.55832675386134   -1.68330715366759   -3.72730302448196
H         4.38633281048283   -1.80707834768755   -2.15146241326473
H         2.25010751636845    1.26547277722846   -2.92559552446192
H         3.34222367558334    1.54681286694883   -4.32166582496841
H         3.17333780109178    3.25365616755021   -2.24860649246132
H         4.77523412134452    3.03157152875190   -2.98148780746655
H         5.45409702757202    2.48684779447638   -0.80106301716369
H         5.41050581423102   -0.18330407217714   -1.24895674511235
H         6.08259564823876    0.82066191287964   -2.55136021178353
H         0.22608433747068   -0.26143758445640   -0.38134606518156
