33
 energy: -44.350647578849 gnorm: 0.107072217257 xtb: 6.4.1 (79825abcba525fcdf90b791dcacef51065a7a4e7)
C        -0.11865823753824    1.75021863408534    0.63773280915530
C         1.24163576319867    1.28362209444110    0.18748665598167
N         2.31523123907151    2.01228876778559    0.23880773357160
C         3.47324559920283    1.23410474361402   -0.28172518469261
C         3.69364249986509   -0.00036682671253    0.63884286779287
N         3.23955715976922   -1.13607006261791   -0.25845619704949
C         2.15116308985833   -0.83215682163188   -0.90250403078513
C         2.12472424203995   -1.22822099000734   -2.38249009680446
C         3.55352626910404   -1.02522881165804   -3.03751017194272
N         4.30543959037859    0.23746552140453   -2.78445797104186
C         3.62955957165365    1.49275446363074   -3.14115409032569
C         4.22742303325973    2.59704446828032   -2.23910235785509
C         4.69279145285312    1.81057143942010   -1.00875593862388
C         5.30119067322141    0.57710545845668   -1.74698800233752
N         1.15482025521438    0.05452010266377   -0.46462992883873
H         0.07507785926111    2.54117676641520    1.35421900546941
H        -0.64521506786908    0.92986748542218    1.12926046236526
H        -0.62275365138501    2.19441463425193   -0.23912893794726
H         3.01710434503946    0.84641115052245   -1.16065881394064
H         2.95505453182450    0.07324056312680    1.44799094753990
H         4.65951480937790   -0.21972698001772    1.10586178620078
H         1.37564638865415   -0.58086742104972   -2.85498563866212
H         1.84877682876191   -2.27726424189761   -2.53148555603026
H         3.42137562882957   -1.21468991418278   -4.11402000070606
H         4.20532020232460   -1.84433616524875   -2.70770953383691
H         2.54632982759667    1.34141111216208   -3.07054245205879
H         3.84728767785660    1.72458324066925   -4.18957518527039
H         3.55477168852585    3.42907190680408   -2.01149221320984
H         5.05994357879782    3.07894670329808   -2.76834492881788
H         5.43550533628560    2.12353365115356   -0.26981793850687
H         5.50621154844002   -0.30363169002805   -1.13296180749633
H         6.24847089177983    0.77911671553330   -2.26047547489818
H         0.19153102545778   -0.22334729645386   -0.65318964148279
