33
 energy: -44.341410356355 gnorm: 0.126294403583 xtb: 6.4.1 (79825abcba525fcdf90b791dcacef51065a7a4e7)
C        -0.03851697730168    1.82821987435800    0.47814224978179
C         1.36650863351093    1.38859857398770    0.15647491629566
N         2.34970223001825    2.22709385004863    0.02820849922082
C         3.47944500967322    1.33813789607566   -0.36032817305563
C         3.77016025185730    0.24387414551059    0.70644823311107
N         3.37089740476168   -1.07776541374039    0.07794285199938
C         2.33000214721654   -0.84933173054724   -0.66779011214847
C         2.26064122093295   -1.59625465699370   -2.00391129537503
C         3.58602653076134   -1.25388182992047   -2.80257705496650
N         4.10640266795027    0.14347974025970   -2.82246087883886
C         3.35584829104194    1.33745972792546   -3.23583258557090
C         3.96495641007409    2.53274260157613   -2.46714499074207
C         4.60676349219557    1.93136853590766   -1.21203829411847
C         5.15403149358488    0.64700300465375   -1.91023414304884
N         1.33682553861064    0.09259946628930   -0.35635052947990
H         0.06693870545580    2.56216670276719    1.26978741557987
H        -0.69300037398019    1.08382390363589    0.93570499156335
H        -0.53753119651025    2.28062775080900   -0.39742654835161
H         3.07938490323771    0.72484422275717   -1.13150796898211
H         3.26698167979582    0.52256500268424    1.64175223917460
H         4.79934076471600    0.07692416421315    1.04118701305236
H         1.36408377370840   -1.43866008231160   -2.61610815789082
H         2.26065546645643   -2.66832815552378   -1.78143255278580
H         3.42859858682552   -1.59513336883898   -3.83746668526439
H         4.45208511597903   -1.75877904922877   -2.35585345069696
H         2.26922573114703    1.20584127418499   -3.17921556283037
H         3.52147048647675    1.54006350772555   -4.29972069068117
H         3.08554021032831    3.13713346291864   -2.22657336274325
H         4.79400259604613    2.98965205120309   -3.02332311240392
H         5.39119743563154    2.55854598390748   -0.77970685819118
H         5.59169924563931   -0.14845450855537   -1.30158486968240
H         5.95708927167497    0.96823489109834   -2.58382602982713
H         0.46470615777420   -0.06889869770127   -0.86035185823142
