33
 energy: -44.342398347810 gnorm: 0.126711026123 xtb: 6.4.1 (79825abcba525fcdf90b791dcacef51065a7a4e7)
C        -0.13020307825047    1.70379312839705    0.56256769682224
C         1.21620869966067    1.23564398278494    0.07384956717716
N         2.34875711131505    1.68872547695459    0.51909948551482
C         3.40698207242070    0.86751279124174   -0.13150933011966
C         3.29149873199123   -0.54532271566105    0.50919328689222
N         2.84700456150632   -1.35025056615342   -0.69732113357196
C         1.96469088374753   -0.70204305679869   -1.39954056628279
C         2.20619450381455   -0.72210054826999   -2.91255024839043
C         3.71800697550869   -0.58859439672439   -3.36898372684251
N         4.48200599008185    0.56165097292741   -2.80591432507185
C         3.93019778275436    1.91957568750442   -2.69940408640069
C         4.51911772342396    2.55843905653345   -1.42048995000671
C         4.80781770690731    1.36784604800003   -0.49962050909463
C         5.25612032061198    0.32388951702929   -1.57001952658613
N         1.04835982775721    0.21465357951327   -0.86043628285321
H        -0.55832481366065    0.95579708494728    1.22113782051174
H        -0.82835818327839    1.86410622864338   -0.26127494507400
H        -0.10536211564547    2.70235223636911    1.03434245957834
H         3.06206384419017    0.71101675682975   -1.12520742308344
H         2.57669475593827   -0.56411558409927    1.34247172591216
H         4.26035001706001   -0.88435894344313    0.89065953826396
H         1.50321785599171    0.00236363326281   -3.34198219043409
H         1.90460844008675   -1.68506474973919   -3.33750220458160
H         3.61536620525300   -0.48966890063752   -4.46073064737534
H         4.23512858109202   -1.49947242599143   -3.04122296757029
H         2.83728653948838    1.83753760662496   -2.70900946017961
H         4.24707330357453    2.38064510337514   -3.64139230541624
H         3.83385227312049    3.23837984749591   -0.90607022039199
H         5.38266919412915    3.22194782138530   -1.55996361186260
H         5.50378665308896    1.42718402307294    0.34163145399231
H         5.17495091361774   -0.76347675023760   -1.49382381558972
H         6.26684196037940    0.66775722776548   -1.81904666751145
H         0.13006895887817    0.18512796261746   -1.30378864922708
