33
 energy: -44.342872682688 gnorm: 0.128782953216 xtb: 6.4.1 (79825abcba525fcdf90b791dcacef51065a7a4e7)
C        -0.10397618589574    1.95417436631337    0.44057898883831
C         1.21645498241496    1.33404255766755    0.06278040478912
N         2.24479048029608    2.12677792358082    0.07989686579792
C         3.44426177169282    1.33692207559684   -0.31370003473244
C         3.84374103317800    0.26610116962245    0.74161949324798
N         3.41568460050526   -1.00892113694041    0.04001650103093
C         2.31457654656869   -0.84266935995110   -0.63205784123154
C         2.31103731398204   -1.56115056280333   -1.98545978941618
C         3.58190886729496   -1.21239958094056   -2.86579529816508
N         4.08688218869336    0.18874084876654   -2.79087206641529
C         3.38305054399617    1.39001117308139   -3.26136848115527
C         4.11235072978633    2.51376849584267   -2.48943248304176
C         4.58788695169250    1.87651591502924   -1.17922854510592
C         5.17356634272574    0.61282867789977   -1.88396164355081
N         1.23084302403210   -0.00516001632055   -0.32427789611491
H        -0.06061718395690    2.96029525669868    0.84349542564499
H        -0.55523788883661    1.27105676739684    1.16276370388477
H        -0.61384158648878    1.92425797421807   -0.53893675148718
H         3.05972820645880    0.77764165225293   -1.13237874933137
H         3.38315043143638    0.43408043189736    1.72411128051938
H         4.92507010892425    0.14791522862308    0.86769243780241
H         1.46182492020989   -1.47977478504095   -2.67513550607121
H         2.24491952181901   -2.63560160002978   -1.78540534721025
H         3.23126523637623   -1.35237809048804   -3.90005241421297
H         4.43544176447634   -1.83160911563374   -2.56148986592490
H         2.32374214995704    1.36005514950959   -2.98164387326467
H         3.54551453726295    1.54355626438188   -4.33391976635299
H         3.41308230603894    3.34218481092846   -2.34353542501922
H         4.98346895491527    2.86597008096825   -3.05734533429422
H         5.37164945658725    2.44076137917993   -0.66644982071996
H         5.58066038299296   -0.16763822771155   -1.23596048157621
H         6.06164773485279    0.76569415360557   -2.50827032967123
H         0.33395200330480   -0.46121146648544   -0.49248837934916
