33
 energy: -44.347522245160 gnorm: 0.120334551470 xtb: 6.4.1 (79825abcba525fcdf90b791dcacef51065a7a4e7)
C        -0.19788978343717    1.60056882833114    0.66880381313263
C         1.14327407957035    1.18654411023105    0.12044560106632
N         2.26249639538066    1.67266001341827    0.56455028751067
C         3.36477183363626    0.94198169643425   -0.12000812986745
C         3.32730103406300   -0.51018893885413    0.43653189394054
N         2.92035502011621   -1.30465739728424   -0.78999807696029
C         1.99792852462144   -0.66412551071056   -1.44620749090068
C         2.03792646190729   -0.82784190391833   -2.96920510298453
C         3.57279533442669   -0.57484721022000   -3.27236118641205
N         4.38603979042142    0.53064854672299   -2.68899283002932
C         4.10948523409742    1.97183468239464   -2.76834239325825
C         4.66563419795596    2.56035203503300   -1.45117113484218
C         4.78797085851744    1.38990762246166   -0.46935978178300
C         5.22942840218569    0.30158890511033   -1.49758744768522
N         1.09185432771931    0.27939997362703   -0.93687658950327
H        -0.62389519300805    0.76315895327377    1.21080473876043
H        -0.87433623757243    1.75832627319306   -0.17343743694220
H        -0.17587679543315    2.54058895022897    1.24861963558352
H         3.02535336702179    1.01847256335264   -1.12491595881903
H         2.57832428402523   -0.69472380217552    1.21796107548877
H         4.33883450587307   -0.82627160291890    0.71226122295266
H         1.27994917257319   -0.14142062095585   -3.36636069696802
H         1.78928872463742   -1.81616446272833   -3.36950020029469
H         3.71673681377258   -0.53654281257153   -4.36325364020051
H         4.12055552672175   -1.47520087746702   -2.96599097843449
H         3.05595868971369    2.26742494116310   -2.83147489246800
H         4.67346720834796    2.41976548573797   -3.59394473841557
H         4.00401638573429    3.41831615891542   -1.30052152665693
H         5.66627323305954    2.93526245949803   -1.70332509836725
H         5.55033989668881    1.59499785652062    0.28716521872992
H         5.14869897128387   -0.70649522310603   -1.08284800511378
H         6.26531873089416    0.44414809744735   -1.82686826031414
H         0.17626919572844    0.25156953595434   -1.38589834291702
