33
 energy: -44.338601827869 gnorm: 0.129915349558 xtb: 6.4.1 (79825abcba525fcdf90b791dcacef51065a7a4e7)
C        -0.02961195332912    1.87738907996169    0.71822722539434
C         1.19880596290607    1.32743512030044    0.04045607220592
N         2.24012649308621    2.07565571915314   -0.16451635921936
C         3.45211871768516    1.28370844788478   -0.51296507898035
C         3.66817109889321    0.31605092020798    0.68574283551136
N         3.27505236454143   -1.06835628959504    0.20612288818972
C         2.26997456283113   -0.84953918850855   -0.58992999925043
C         2.28029247099659   -1.62178172377675   -1.91335721378948
C         3.50869110651001   -1.12590619123486   -2.78334376246603
N         4.18606961275601    0.20012949461540   -2.86454559785818
C         3.53116800167064    1.42845253595668   -3.33584446341523
C         4.15323890232733    2.58537078074258   -2.52026955734432
C         4.65351847199656    1.87640133312679   -1.25696334833276
C         5.26334444712696    0.61295879903091   -1.94136071421259
N         1.17122528853524   -0.00130099406739   -0.38047658753364
H         0.17748523879316    2.83491593430969    1.18379566915240
H        -0.30271494603738    1.11637526423117    1.45178722009544
H        -0.83052978110976    1.90017246540239   -0.04224653535192
H         3.19199259059868    0.64734395234478   -1.32430354794526
H         3.14987326546746    0.57324525572932    1.61894660446401
H         4.73011901215945    0.23660502532015    0.94086996545216
H         1.40222144970950   -1.31651818936506   -2.49580185620339
H         2.46763940811818   -2.69971570835553   -1.87095665001224
H         3.12038094684342   -1.30898765237309   -3.79721215342107
H         4.28928655052719   -1.85848875102130   -2.54140535293271
H         2.43655611036242    1.40928512622112   -3.28354815391407
H         3.79536858917421    1.52329334562137   -4.39487239989662
H         3.34037822933363    3.30703538887842   -2.39782125094202
H         5.05088612239937    2.99650658094928   -3.00049319740720
H         5.20940738203756    2.57754989402347   -0.62849152136592
H         5.47965915567365   -0.17436502727857   -1.21466353639750
H         6.22134250292764    0.87079464166450   -2.40781343613739
H         0.31150285769608   -0.52334679646862   -0.55087818381310
