33
 energy: -44.348105582072 gnorm: 0.127343257671 xtb: 6.4.1 (79825abcba525fcdf90b791dcacef51065a7a4e7)
C        -0.10815413426452    1.70625187821546    0.64333600105185
C         1.18447555094489    1.19856645606577    0.05835931635734
N         2.28490957156660    1.61342930489220    0.60893177054682
C         3.33301569913241    0.82853441839394   -0.10024785709516
C         3.27723288011810   -0.63434478526454    0.42588247914846
N         2.87935481043080   -1.35093419427079   -0.85057888862086
C         2.02001964833003   -0.62116459492647   -1.49922513380530
C         2.10099574632370   -0.65168067316374   -3.02907357865362
C         3.62338632890934   -0.47239541067318   -3.43146156019809
N         4.40416427407768    0.55111513987150   -2.67872122562617
C         3.98131316811095    1.95834206967030   -2.65215868882734
C         4.62013596789077    2.49176609137394   -1.34910124043795
C         4.76140417410223    1.28919506502882   -0.40956617470990
C         5.26372562025069    0.29624691335408   -1.50423583391267
N         1.05957318759637    0.24100385394523   -0.94710473635326
H        -0.45471006839063    2.50497089140126   -0.00353943950272
H         0.19664027310493    2.21117608393799    1.56202499109877
H        -0.91177333866386    0.95521048024715    0.74552105044291
H         3.10741675185885    0.68324494325834   -1.12927243318540
H         2.57631427419105   -0.76116691633460    1.26151404244016
H         4.22623220822353   -1.10419973615645    0.70475786142355
H         1.44875349587280    0.15832970958255   -3.37821472835489
H         1.77972209005792   -1.64464731458858   -3.36019118107419
H         3.70731363810729   -0.24972549360919   -4.50645320461190
H         4.15553506703173   -1.41690496252571   -3.26040577097861
H         2.90081574235544    2.09940142146753   -2.77007843560953
H         4.30229710348443    2.47880122541532   -3.56123981026120
H         4.09003778868656    3.32736822737335   -0.88294583226972
H         5.58918338948230    2.88210310539672   -1.68674311806120
H         5.39085406003695    1.35006077040176    0.48244663023748
H         5.15233607157689   -0.72129070000681   -1.12087017126216
H         6.31402906336118    0.52308395066149   -1.72154985824285
H         0.20211244680240    0.33096697097006   -1.49241100236924
