33
 energy: -44.344841780065 gnorm: 0.109623791849 xtb: 6.4.1 (79825abcba525fcdf90b791dcacef51065a7a4e7)
C        -0.06802813656595    1.88817579848945    0.52046067711763
C         1.27290976608986    1.29418819935479    0.17419780333671
N         2.28644619974840    2.09939775155990    0.07134981126008
C         3.46836029721118    1.30389609274066   -0.36198417047468
C         3.85683658275408    0.24211054353726    0.70649045255906
N         3.36843975963243   -1.02302429466401    0.02673804960482
C         2.28018105866295   -0.88264761816768   -0.67165289579853
C         2.23638902867580   -1.46405727418150   -2.08868136547654
C         3.65390709458176   -1.26715740920825   -2.76956707261863
N         4.11954548779825    0.14950537825262   -2.77688011889176
C         3.47862357137627    1.33691873522254   -3.35917288317004
C         4.01414492401458    2.51912050373308   -2.51880967484028
C         4.57704522920563    1.90514554187845   -1.23232691164482
C         5.19564146119880    0.62938404819451   -1.88527854408366
N         1.24154694524827    0.01616872218429   -0.38183032495939
H         0.16286138623842    2.92291637645072    0.74959574212750
H        -0.53414648564094    1.52557334494440    1.43866037190892
H        -0.90784621547949    1.85746187959881   -0.19652679506399
H         2.93864755494901    0.65395656184620   -1.01610840161384
H         3.29434033693451    0.46768674968499    1.62211275251335
H         4.92836288997195    0.14446086530740    0.91003598227705
H         1.43232114289506   -0.93773709599578   -2.61773544652360
H         2.04444056607281   -2.54125056027555   -2.12928658016932
H         3.75034516025371   -1.77802322440266   -3.74010740182281
H         4.30149055313876   -1.87073133318891   -2.12081840302262
H         2.38808269852982    1.28070441149299   -3.26516200472387
H         3.72233796175951    1.49710329263907   -4.41524158562832
H         3.20065542279787    3.20483790718670   -2.26471846153746
H         4.82620141768140    3.03811073774733   -3.04476719329778
H         5.27832674628792    2.60561056906595   -0.77064346319158
H         5.53777350687664   -0.13668853127320   -1.18468014327716
H         6.03059742150645    1.01428744592784   -2.48236787360658
H         0.29461490808244   -0.34541782323200   -0.49700881531034
