33
 energy: -44.342030373541 gnorm: 0.115769690353 xtb: 6.4.1 (79825abcba525fcdf90b791dcacef51065a7a4e7)
C        -0.07115004058320    1.87239145501202    0.39379909992770
C         1.30229463819462    1.31254901773457    0.12722853363718
N         2.29898495880637    2.13939443914915    0.03167078977904
C         3.54518036356373    1.38477521361332   -0.27666179891473
C         3.86363320707837    0.28463427905271    0.77605758167271
N         3.42614540155119   -0.98055370528323    0.06256986069802
C         2.30733036180058   -0.89821345947554   -0.59563642987201
C         2.21418652600721   -1.63565880075181   -1.93557046020176
C         3.45035716802523   -1.16088370855456   -2.80631905748164
N         4.04838107674838    0.20447953973433   -2.76208513133617
C         3.57048735203224    1.40787371657274   -3.45725150390612
C         3.99500381957944    2.49938733801073   -2.44780698130676
C         4.65444825195315    1.87940472831729   -1.21103112889239
C         5.20041966421969    0.60485905949127   -1.92798515107777
N         1.25808028379630   -0.01018880565963   -0.31082903627745
H        -0.05519061338601    2.85121615379023    0.86086270970020
H        -0.59874850533915    1.21909209429581    1.09142173583347
H        -0.66543582063861    2.11675293869302   -0.50476679538574
H         3.14150275061580    0.73712954179949   -1.01726625641942
H         3.35776220532409    0.38464942445125    1.74546066690286
H         4.94046897851036    0.17451089504620    0.94168496842472
H         1.25670937148399   -1.40068060725213   -2.41667237886106
H         2.29029333996488   -2.72641245686362   -1.87810235087719
H         3.07274991820977   -1.39836483208451   -3.81292136192616
H         4.21769939533294   -1.90379870919241   -2.55372480146111
H         2.48849705869430    1.25217835519108   -3.53683448550454
H         3.99216364617682    1.71802190552556   -4.41971402340374
H         3.12271000403940    3.02659538340479   -2.05070365955260
H         4.67474131090722    3.24284574269704   -2.88443550283141
H         5.42513633059277    2.54980202093603   -0.82089528455313
H         5.41111565788591   -0.24911760365841   -1.27907012625636
H         6.02479854935312    0.86441007139548   -2.60241118182808
H         0.33904164998163   -0.38319719347256   -0.54941641111536
