33
 energy: -44.350490293257 gnorm: 0.122443766518 xtb: 6.4.1 (79825abcba525fcdf90b791dcacef51065a7a4e7)
C        -0.14583240321672    1.80860308534940    0.61782967851957
C         1.09134369451883    1.09413630161336    0.13849032136912
N         2.23853610067576    1.56812547274678    0.51990883239032
C         3.32260834030636    0.82917337694503   -0.18454793930951
C         3.40585340861573   -0.60328170520202    0.41635396673849
N         2.77967279733377   -1.44828633008353   -0.67681847020542
C         1.90698551522080   -0.77025124306086   -1.36271047844248
C         2.09534214660603   -0.77799702233088   -2.88336375232299
C         3.62975704709748   -0.55105563664654   -3.20863422431328
N         4.52317004172695    0.56663519651062   -2.78865033884726
C         4.13949660458897    1.98392991595098   -2.85083249831691
C         4.52835209897267    2.59169530439393   -1.48335046958475
C         4.69926952481413    1.41411234754590   -0.51745941916247
C         5.29154494516668    0.39281853596181   -1.53860744882632
N         0.94778065536163    0.11117272698649   -0.83959809331478
H        -0.73815860633024    1.00315534578928    1.03842987083240
H        -0.58410092417566    2.39747838738115   -0.19024465022883
H         0.11729205810432    2.45411458091615    1.47479480074733
H         2.98663646841279    0.74048299774316   -1.18961132390026
H         2.86143812465643   -0.62948192573488    1.36954670509246
H         4.42642848362184   -0.99479585308624    0.48176086847593
H         1.54072589207650    0.09611581768463   -3.24635667677372
H         1.83797324465537   -1.66314196567815   -3.47422586674615
H         3.59032007861893   -0.55850024744246   -4.30891692657442
H         4.15682491544790   -1.44218275394735   -2.84444666940226
H         3.06891733120277    1.97105775816311   -3.08529319613250
H         4.65587321640094    2.52404222753249   -3.65206329396407
H         3.82469052580077    3.35071502163719   -1.12939379240695
H         5.47857687770626    3.12603681294197   -1.61361921193703
H         5.41308074288205    1.62013951435332    0.28480299437395
H         5.42918495510899   -0.58695468781210   -1.07400083048351
H         6.31517104142356    0.71000854334426   -1.76968722601514
H         0.15715450789853    0.32055027961701   -1.44932141805174
