33
 energy: -44.342308663399 gnorm: 0.126589229727 xtb: 6.4.1 (79825abcba525fcdf90b791dcacef51065a7a4e7)
C        -0.01934878297897    1.96986254666057    0.56397540162592
C         1.26110753848543    1.25875594767608    0.20958477621532
N         2.28802560818245    2.05123814853867    0.14952257513628
C         3.42203108597732    1.24314485688515   -0.37824534205818
C         3.79885570414448    0.18343780328396    0.69644743525614
N         3.26931250536240   -1.10880251742103    0.10411315436452
C         2.20696505568240   -0.91833901884659   -0.62176842328314
C         2.21710475886642   -1.49069443638595   -2.04311674348998
C         3.58375682031528   -1.12443140758774   -2.75715166966221
N         4.30654980478354    0.17414091303304   -2.87997779624018
C         3.56334469612764    1.32037374460376   -3.42181975670953
C         4.05571636480546    2.49083661706430   -2.53967392574821
C         4.52020021031542    1.94336352834213   -1.18564738245505
C         5.20843904097774    0.70212973136659   -1.83544773189673
N         1.16441419516651   -0.03309890680737   -0.30543571705944
H         0.25484520662047    3.00310394725789    0.38031598390732
H        -0.31737917107960    1.91108075209742    1.61257452512015
H        -0.78213236685688    1.55413228710011   -0.11840158575086
H         2.99661186194746    0.76339354693938   -1.22662771690816
H         3.30343564093793    0.48558417967685    1.62860481300360
H         4.87968024771728    0.08465231836375    0.84203110340092
H         1.28042833367719   -1.17069738937924   -2.51606015068964
H         2.28332570609468   -2.58288843102545   -2.08268220770827
H         3.50986836863134   -1.27858518764841   -3.84481421969232
H         4.33932998135714   -1.81113281818669   -2.35454637811482
H         2.47643105527238    1.19266937212326   -3.36192133305191
H         3.85428587474882    1.48690209247798   -4.46487222049237
H         3.20178305607889    3.17318005914777   -2.49794622084267
H         4.91957092126035    2.89200696066398   -3.08578342435224
H         5.16551166536562    2.60309566543023   -0.59919596832850
H         5.44025531294805   -0.14334309474167   -1.18261040894903
H         6.04726188040146    1.03300967053217   -2.45891582072638
H         0.23705166986174   -0.25832706367175   -0.66593843963013
