33
 energy: -44.340128377399 gnorm: 0.127040759642 xtb: 6.4.1 (79825abcba525fcdf90b791dcacef51065a7a4e7)
C        -0.14898461958871    1.80880309436150    0.54259834894057
C         1.14616488346592    1.12804635264104    0.18205471477858
N         2.29958549243885    1.55541018839334    0.59820045177313
C         3.38752059701782    0.81404414951760   -0.09771316661658
C         3.37179364314844   -0.64047002653757    0.45372275655408
N         2.93682100668895   -1.40170504035389   -0.78421141531329
C         1.95541502019953   -0.75909366655434   -1.34604362137051
C         2.05645512349256   -0.71234508081349   -2.87428773393351
C         3.56086190340198   -0.45739754488700   -3.30265013142785
N         4.52600387354311    0.52199533281157   -2.72550492006612
C         4.12606729002073    1.93401953733037   -2.80318774782350
C         4.48935957164819    2.55573953268373   -1.43494894298445
C         4.75643509838853    1.38548886211847   -0.48203554839361
C         5.35122143406536    0.37162137773307   -1.50910733389224
N         1.04552580633177    0.17973013129889   -0.83482915164198
H        -0.83601157051861    1.19914446585736    1.11949628333591
H        -0.67359329933905    2.04722285109245   -0.38464449423381
H         0.01541647909393    2.71883407661165    1.14685382391633
H         2.96847072699039    0.81950889184825   -1.07508864851207
H         2.70843001077900   -0.65186546673188    1.32863400025030
H         4.32670584775925   -1.14574029984349    0.63255090691693
H         1.32664317267551    0.00170331311654   -3.27546813286875
H         1.83499241326537   -1.64291419121240   -3.40704824625621
H         3.51716299594433   -0.31662511578975   -4.39375335310068
H         3.98590238425304   -1.46707346956472   -3.23604858716907
H         3.05408540297764    1.98171825704033   -3.02647491148391
H         4.62614661020492    2.16093512964542   -3.75122091783984
H         3.61002007300695    3.09482032862218   -1.07068281342324
H         5.26805924999974    3.32102384776623   -1.55064098625638
H         5.36085250614149    1.54063284917359    0.41585562960825
H         5.43018551344472   -0.69028167664281   -1.26235599021472
H         6.33012270597042    0.77489446335214   -1.79360841352039
H         0.30518330614643    0.44079789067162   -1.48631039226447
