33
 energy: -44.339995533721 gnorm: 0.119888965164 xtb: 6.4.1 (79825abcba525fcdf90b791dcacef51065a7a4e7)
C        -0.06104550509084    1.75962519034976    0.58265290915216
C         1.26047616885461    1.35151340716760   -0.01556022663687
N         2.24886562179287    2.19265105184374   -0.05763154003046
C         3.44962712815929    1.37734933331935   -0.39076376660248
C         3.72446430706255    0.38374267366835    0.77420436009729
N         3.42305352171223   -0.97208380223894    0.16424775057547
C         2.35605691985667   -0.90261821841400   -0.57632994672434
C         2.20095868827283   -1.53053517721566   -1.96542658229560
C         3.42452521896769   -1.10240859646017   -2.87719681133015
N         4.14395303291708    0.20339730109829   -2.91037253012814
C         3.57897611157219    1.46733941821895   -3.40337116537876
C         4.17217401683818    2.55047273562067   -2.47303094364090
C         4.65852044302080    1.77177067184822   -1.24585933400155
C         5.14964327448657    0.41862237516781   -1.84948386493265
N         1.30533398462870    0.00963018576068   -0.39082267404018
H        -0.14157891286747    2.81741844329881    0.80868103798955
H         0.01460107703185    1.24195251177820    1.54084398639356
H        -0.93302455089713    1.44888348108808   -0.02017453590436
H         2.97513249379717    0.80819291924602   -1.15352933540487
H         3.00703765038564    0.41842128694085    1.60471458912632
H         4.72263592327708    0.37806292898103    1.22448875759888
H         1.27976405393453   -1.23674283827332   -2.48361845931945
H         2.28388704188954   -2.62210395258695   -1.94447727265492
H         3.14360298162828   -1.13352259534689   -3.94131491498283
H         4.21916270724838   -1.80207257895247   -2.58812548477123
H         2.48611392083184    1.41874005986537   -3.47095686428535
H         3.97416653314065    1.62832431352416   -4.41245257856646
H         3.29745470512523    3.16543460669425   -2.24232789754202
H         4.93167890171034    3.20298733085453   -2.92335855295952
H         5.46459339412137    2.36526736617449   -0.80585171892339
H         5.19318153312432   -0.37047191272473   -1.09437176717477
H         6.13180865070462    0.58244393898166   -2.30810289697559
H         0.42575623779040   -0.49858662647058   -0.48436341846166
