33
 energy: -44.346235097721 gnorm: 0.123932256862 xtb: 6.4.1 (79825abcba525fcdf90b791dcacef51065a7a4e7)
C        -0.05508335827917    1.88315071568715    0.66127793722003
C         1.23399022673418    1.34928494279446    0.09197104135189
N         2.31062051846321    2.07514395567877    0.10583298419602
C         3.39846680900344    1.18234344307052   -0.38101388371222
C         3.73673749551257    0.03543571886409    0.61403185938793
N         3.21261558956219   -1.21819102245597   -0.06041397656059
C         2.18457123651232   -0.86744280294102   -0.77586001552291
C         2.24152093170010   -1.35708553572780   -2.22669816505716
C         3.63865882259382   -1.08746516301080   -2.92458277803332
N         4.30035892711083    0.24891676784450   -2.93109108948062
C         3.54344973660154    1.47920167939550   -3.20180084105927
C         4.11248552942589    2.56303846774803   -2.25729538724553
C         4.64198739043208    1.76596052311681   -1.06015109804118
C         5.27534011263515    0.59588503571407   -1.87646121798537
N         1.18899034118608    0.03322747507967   -0.36568871825703
H        -0.29195678110570    2.85793640498644    0.24874338852148
H         0.05225237217438    1.97027427533021    1.74420271170114
H        -0.90893957518322    1.24058390662494    0.38137393274571
H         2.92086653213342    0.76864840153283   -1.23637923376863
H         3.18155076692087    0.35629142989157    1.50536241855853
H         4.75552773806094   -0.23072649934353    0.91462958513344
H         1.40071726681492   -0.96453901314143   -2.81184151076180
H         2.15004020952797   -2.44586927644864   -2.29754742053131
H         3.61308941722583   -1.33005615490936   -3.99823473959965
H         4.39246410820615   -1.69892164398161   -2.41229456022663
H         2.45813960502937    1.48518035101488   -3.04901449611487
H         3.72986148953752    1.80748009944888   -4.23030501808486
H         3.32534763682556    3.28839163714448   -2.03187890220166
H         4.91643033763407    3.07996420596169   -2.79755315309934
H         5.25796667209716    2.32310417669630   -0.34898366996296
H         5.29360412271184   -0.32940951343574   -1.29486334736448
H         6.23224341828818    0.84623308784645   -2.34919757755599
H         0.26377798087746   -0.17299495641203   -0.74271074093512
