33
 energy: -44.344990239248 gnorm: 0.108851042832 xtb: 6.4.1 (79825abcba525fcdf90b791dcacef51065a7a4e7)
C        -0.05322693262088    1.88403519129314    0.59976431396951
C         1.25446126010742    1.33751495747201    0.08780637368604
N         2.28368557134797    2.12688842122130    0.02629953342848
C         3.50698194277069    1.38005902616861   -0.37782173823845
C         3.79618312400036    0.29822748228181    0.70196693876433
N         3.41595324330305   -1.00084792807306    0.01713902358882
C         2.34292604411324   -0.79121709446479   -0.68743892460394
C         2.22581465153947   -1.56234196673528   -2.00636878731156
C         3.51530023940157   -1.18570910439565   -2.84726532412130
N         4.22136579204914    0.12735340969744   -2.81343748465988
C         3.53231494014512    1.31209174934206   -3.34390920478321
C         3.92896918280526    2.53962243331364   -2.49160157433317
C         4.62621070893793    1.90534793326640   -1.28312732059597
C         5.21373613565244    0.55727741224647   -1.80666744920892
N         1.24247262775153    0.03126143261163   -0.39906394125653
H         0.19394442510074    2.86404277028215    0.99345502704649
H        -0.56771939269397    1.32775317819837    1.38569393253130
H        -0.86772195366295    1.80857021912041   -0.14267200739150
H         3.02065000041507    0.82386536402119   -1.14269123567308
H         3.28205837946776    0.54529375462680    1.64020190622222
H         4.85789688630041    0.29836143797477    0.97010634840679
H         1.35195355573466   -1.31023353348016   -2.61975646035645
H         2.26865259700355   -2.65000917460980   -1.88811764975653
H         3.30465047195274   -1.25347931579270   -3.92581369893112
H         4.22943555847199   -1.94954879928075   -2.51394816996429
H         2.45861617188236    1.11511762355636   -3.24567660577727
H         3.75768680783452    1.44597095083766   -4.40768586611976
H         3.09678298138363    3.13559898571926   -2.10583746619252
H         4.60549327927643    3.14615094356578   -3.10792635611493
H         5.45593585256421    2.46294672404378   -0.84013928171001
H         5.36041637885380   -0.15048257981467   -0.98671601495792
H         6.24022551711758    0.69282409936778   -2.16689569848443
H         0.35317996442215   -0.40902809683172   -0.63569634221028
