33
 energy: -44.349153580249 gnorm: 0.108639407067 xtb: 6.4.1 (79825abcba525fcdf90b791dcacef51065a7a4e7)
C        -0.10119783675096    1.73150345006008    0.52720751775974
C         1.21342972493041    1.16816099685642    0.05261995918401
N         2.34956281824534    1.63993607624281    0.46834354103246
C         3.43905329828767    0.80641034146084   -0.11111094726923
C         3.31697546754157   -0.57409247347945    0.59546486634268
N         2.78857798443099   -1.41073814253365   -0.55430948890419
C         1.98280999392770   -0.76155975515668   -1.34238808534668
C         2.14508121918474   -1.02789521437261   -2.84260742018628
C         3.43962207523907   -0.35181465881488   -3.45808396378665
N         4.39941058971047    0.56135638407693   -2.77344489262253
C         4.06756269793504    1.98973964236229   -2.67651979230359
C         4.54303852925192    2.58586396756243   -1.33147221764049
C         4.82604304235124    1.34143034514783   -0.48285374566571
C         5.26579664506141    0.34057718428085   -1.59707285579698
N         1.09724542555913    0.27659709263142   -1.01279061775190
H        -0.72039586938117    0.96162362035100    0.97484548509880
H        -0.65490595072608    2.16716861585017   -0.30672336863920
H         0.04272244865321    2.54767431025931    1.25759157367200
H         3.10063763097912    0.52742941577806   -1.07989367319144
H         2.62767878240380   -0.52178296645937    1.44856781534312
H         4.21767133793012   -1.09730685328973    0.93329401291371
H         1.23742892031757   -0.61916714367658   -3.30363342048527
H         2.27464565198621   -2.10594632312054   -2.98352309239377
H         3.11418942841807    0.20880680481576   -4.34804456491780
H         4.03341281953939   -1.15434327909886   -3.91404558991666
H         3.03669023221696    2.30395626944542   -2.87613781382364
H         4.58949210306150    2.57142924780267   -3.44435036986989
H         3.77004053562549    3.22876854610568   -0.90056193380729
H         5.48693307192324    3.11631608621279   -1.51341057272487
H         5.52701613965239    1.50196664964371    0.34083517312695
H         5.23078920040620   -0.68704420856332   -1.22622464443693
H         6.24839532373771    0.56220691325770   -2.02973651297659
H         0.34466533139161    0.47448460040709   -1.67245335348640
