33
 energy: -44.345371948291 gnorm: 0.106181928572 xtb: 6.4.1 (79825abcba525fcdf90b791dcacef51065a7a4e7)
C        -0.09567366607759    1.83716781332726    0.51670302479180
C         1.21860335114789    1.28960166412637    0.02306256373539
N         2.31814000375423    1.97712693575302    0.09032584332866
C         3.53577029854345    1.21765420519686   -0.30729176200926
C         3.81981962190659    0.09025459991526    0.72625866161916
N         3.27033478412496   -1.10793731790377   -0.02444998252119
C         2.17814243631117   -0.95588320798444   -0.71420205508972
C         2.16318943831205   -1.40191860909678   -2.18006474283958
C         3.54352668260622   -1.06452985260827   -2.88189825036414
N         4.21555222239946    0.26670401040005   -2.88392535109640
C         3.55392386236459    1.54757430312279   -3.16925927734941
C         4.16452273958479    2.62386643360302   -2.24224324735651
C         4.72552622419951    1.78876976797661   -1.08606482390202
C         5.28677403327839    0.59501158951481   -1.92064065413161
N         1.17112573732968   -0.00138416760432   -0.50094708771385
H        -0.22947929066269    2.87237738439490    0.22185034652525
H        -0.04867035246048    1.76311210829551    1.60488682127852
H        -0.98614339849551    1.25544843761438    0.21841624236026
H         3.11180913343612    0.66804707627940   -1.11294951716423
H         3.11760989390364    0.27038696628277    1.55094325071577
H         4.78725592439982   -0.09967609397029    1.20283833444186
H         1.33686351622226   -0.82265634907779   -2.61027052562226
H         1.99093729360746   -2.45157695432782   -2.43965079086707
H         3.22602217526317   -1.23205827987084   -3.92274301929573
H         4.30395550031372   -1.78191768813056   -2.54776750552457
H         2.46952324274685    1.62258188602886   -3.02880769363467
H         3.73962050866983    1.69336093083955   -4.23911904206210
H         3.36401890866764    3.30969970417321   -1.95007512948089
H         4.92790606955924    3.14747185902972   -2.83258312413635
H         5.49323466041720    2.29999918490455   -0.49881116820630
H         5.44876940326037   -0.25602401361599   -1.25411567004691
H         6.16657426065256    0.85849722816444   -2.51925958131243
H         0.22787140586214   -0.32529062471699   -0.71553287782750
