33
 energy: -44.349801002770 gnorm: 0.111674514936 xtb: 6.4.1 (79825abcba525fcdf90b791dcacef51065a7a4e7)
C        -0.06403560462236    1.89612078092185    0.61230222521530
C         1.24906191175382    1.36093391323892    0.10222023465003
N         2.28751896916991    2.12852165649955   -0.03420643041182
C         3.45285669405962    1.29455029749333   -0.43917794693111
C         3.66971811788348    0.26347953736281    0.70528901088609
N         3.32141787399995   -1.04214030914615    0.01593807098372
C         2.25619262276698   -0.82431177615521   -0.69793056882227
C         2.21755015678619   -1.51131049636658   -2.06704127172999
C         3.56906565471199   -1.17551849369953   -2.82360055078630
N         4.27793691493904    0.13535010115966   -2.87774014826833
C         3.58069773951432    1.32739885169109   -3.38040659071343
C         4.01274476475118    2.50456354306555   -2.47585525417307
C         4.63528536186070    1.86283453993686   -1.23107133550421
C         5.26270902580599    0.58545374488078   -1.87232976365719
N         1.22508655938139    0.00863411348309   -0.23570746794121
H         0.03809438393709    2.96230444910039    0.78354112164553
H        -0.16472927227174    1.43129944341669    1.59497178114506
H        -0.99216483112443    1.69110349907235    0.04940539584737
H         3.00400192727532    0.74734025262946   -1.23289455740253
H         3.09463112046314    0.48258835919799    1.61463884504350
H         4.71049857029323    0.34648273134221    1.03547289276003
H         1.28943890315563   -1.27835892163730   -2.60349198353836
H         2.32724533197243   -2.59578800223849   -1.96353340112315
H         3.52061993763241   -1.48318458309458   -3.87964378070240
H         4.31528843229843   -1.76144436454407   -2.27189130335907
H         2.49041544851506    1.32997341443239   -3.26835576293807
H         3.83769120832289    1.47470944727710   -4.43520081034602
H         3.13679757586706    3.05499253939361   -2.12049583843933
H         4.70069861484416    3.15414849303203   -3.03279045439913
H         5.37004994166550    2.48486849111049   -0.71261843965531
H         5.45476337281238   -0.17444671192309   -1.11047277205143
H         6.21464537027539    0.90368787593708   -2.31319479678980
H         0.37814990248226   -0.36407246971792   -0.66521801743303
