33
 energy: -44.336925306824 gnorm: 0.123770385705 xtb: 6.4.1 (79825abcba525fcdf90b791dcacef51065a7a4e7)
C        -0.14898048093239    1.68088457486400    0.57677042757968
C         1.27810121468132    1.40452132056795    0.17941050886840
N         2.30579134920303    2.19826922353333    0.17573724791830
C         3.42219114560862    1.37072463976315   -0.35937360865292
C         3.81677419067683    0.33239142324717    0.72971259615063
N         3.37806818714727   -0.92279790901129   -0.00049130205079
C         2.26336539363280   -0.81290849289602   -0.66164524149445
C         2.19206456078138   -1.48454454954121   -2.03705274991203
C         3.55792883476040   -1.24237146425932   -2.80353780875486
N         4.24714892363892    0.07660229684579   -2.89887892697542
C         3.57536842087920    1.28415139491696   -3.39921119798475
C         4.04066578993903    2.46784237665716   -2.52002493695617
C         4.58798262278635    1.87171531997462   -1.21851169112753
C         5.16898968030328    0.57019442436434   -1.85494603734407
N         1.26049219374209    0.12899502974253   -0.38291263018730
H        -0.21042451740939    2.74532552716712    0.77599644175703
H        -0.38057780461156    1.16712003964962    1.51178177725573
H        -0.90691959569846    1.57967225767523   -0.22047053801972
H         2.91010577903027    0.89413988729080   -1.16032993920780
H         3.40626938299829    0.52368354552795    1.72998454618120
H         4.89592142298222    0.43943559265446    0.88175755735475
H         1.47921051689413   -0.84400133321887   -2.57088776492793
H         1.93470567816547   -2.54744424847414   -2.09042875839997
H         3.33496755547940   -1.45406653012450   -3.86075405358167
H         4.34539338630087   -1.95086177191687   -2.51634151191788
H         2.49177272513686    1.16871004695059   -3.51656175991583
H         4.06089015795547    1.46773359307385   -4.36404440844342
H         3.19673926878615    3.10677013870630   -2.24417132824227
H         4.86775619132190    2.95265351864310   -3.05509273644750
H         5.34976124713397    2.50507782762920   -0.75575485365642
H         5.37362795957028   -0.18291288159822   -1.08962766280976
H         6.19103063329746    0.74448848052430   -2.21113646000241
H         0.36980126299884   -0.36204019564058   -0.46193972682587
