33
 energy: -44.339295266155 gnorm: 0.125999015554 xtb: 6.4.1 (79825abcba525fcdf90b791dcacef51065a7a4e7)
C        -0.04359644400625    1.86836296152336    0.64663109688985
C         1.18186711253306    1.20293819712137    0.07541954852975
N         2.36507251185360    1.61877081507278    0.41202679854862
C         3.48752765349298    0.83969120547168   -0.18013160080163
C         3.35919309913409   -0.55662569361077    0.49349274090989
N         2.77882728368789   -1.42414362826734   -0.60730201703359
C         1.91884563870775   -0.79273752234002   -1.35129154980716
C         2.07056220802175   -0.98738372495385   -2.86358105395660
C         3.56155212549559   -0.62227442313071   -3.25775946798789
N         4.37405763553630    0.50492665387781   -2.71641063379334
C         3.91330102595608    1.89995245611048   -2.67895930047737
C         4.37354689918307    2.63291491057765   -1.39773557363723
C         4.84566506205882    1.43466564566910   -0.56697504757349
C         5.38972122099484    0.44541097900593   -1.64491410695897
N         1.08376444338401    0.26096764143617   -0.94759169676160
H        -0.25019020050717    2.83986601838197    0.21073921613933
H         0.08304984379022    2.07099080269293    1.71187295131647
H        -0.90689439453889    1.24574947532282    0.35103358899509
H         3.09181808888471    0.77538195811432   -1.16510558531306
H         2.74410356297671   -0.50522816943959    1.40160837402776
H         4.30667471592499   -1.03777624371842    0.75789320551345
H         1.41910042471469   -0.29508933754862   -3.41108661256809
H         1.85168736087600   -2.05310054296117   -2.98678754369145
H         3.46031365375428   -0.37842169777487   -4.32664643097523
H         4.15351975369340   -1.54469882018790   -3.20076642739000
H         2.82564043895386    1.91094624228974   -2.81368522838232
H         4.37377131508239    2.30455605015739   -3.58703415867543
H         3.65851867085590    3.27647809853270   -0.87706588384719
H         5.19852701271560    3.27293264106541   -1.73715130895718
H         5.60244408754211    1.64804666241269    0.19286221939465
H         5.60389684082611   -0.57580626929611   -1.31933188025854
H         6.34033430901746    0.73670967770437   -2.10675560433334
H         0.30691194552558    0.31800077533203   -1.60633186984120
