33
 energy: -44.349070645459 gnorm: 0.109223976870 xtb: 6.4.1 (79825abcba525fcdf90b791dcacef51065a7a4e7)
C        -0.08315105752360    1.81219927353632    0.48495212331367
C         1.27894472092980    1.38871553643139   -0.00104202513062
N         2.32917518453424    2.14504144050328    0.10470920429735
C         3.50976547080548    1.34564978020392   -0.32506016955358
C         3.83773680557685    0.29939903515330    0.77844995122326
N         3.44001843878782   -0.96440555520528    0.03968137895023
C         2.38496602713094   -0.81290297085881   -0.70575399094311
C         2.24318824664177   -1.65163683132846   -1.98025356854891
C         3.45026979133765   -1.14755079130683   -2.87500704040780
N         4.16028699218402    0.16376848657796   -2.86389975059388
C         3.45685676781069    1.39248193307001   -3.25791172732060
C         4.04383363675814    2.56529507588724   -2.43903325511483
C         4.64357958823537    1.88466204061694   -1.20375863985803
C         5.11784785196587    0.52084508151994   -1.79675732517268
N         1.32782116817319    0.08692415404640   -0.49746419295238
H        -0.19457729119169    2.88712798932676    0.57776030118784
H        -0.24673668037081    1.34884706283220    1.45982750597299
H        -0.86625701329621    1.52861931187489   -0.24074496110989
H         3.13898138863284    0.77286983332660   -1.14074257699276
H         3.23720360930181    0.54062237154379    1.66547984379159
H         4.91024461811811    0.35697046282859    0.99186830534504
H         1.28937437361678   -1.43249035888476   -2.47588470986625
H         2.19904806595318   -2.73605520930041   -1.83559261757019
H         3.14224897680979   -1.23072042833368   -3.92878059744999
H         4.25979032491028   -1.85299608035068   -2.64792972905684
H         2.37678436120977    1.36277620788293   -3.07395885487428
H         3.62486185315793    1.48736807707210   -4.33638649054862
H         3.22533995255752    3.19507763992068   -2.07850879951786
H         4.74383134816420    3.14053475044497   -3.05913037972350
H         5.51901881487956    2.42067140735249   -0.82706413840860
H         5.18978813179053   -0.28404090656100   -1.06072553438820
H         6.10950822813263    0.51749274671280   -2.26410752454215
H         0.43265726371553   -0.35910103616406   -0.69854703690136
