33
 energy: -44.348786778259 gnorm: 0.124181718329 xtb: 6.4.1 (79825abcba525fcdf90b791dcacef51065a7a4e7)
C        -0.03968535362489    1.91243324211134    0.68327841661894
C         1.22170480915859    1.30667844014216    0.12400237539994
N         2.19487424142354    2.15168508591414   -0.03443141244211
C         3.37063730541203    1.34232529403334   -0.45874275367374
C         3.67982897921807    0.33954777537373    0.68963791784972
N         3.35552865064120   -0.99900523623952    0.05381868833081
C         2.24395414930185   -0.87678491863269   -0.61043040289718
C         2.28687889359232   -1.50672709997335   -2.00658759950819
C         3.63813741339993   -1.17749723082217   -2.76648263452707
N         4.24716887101755    0.17580072074561   -2.91301378574829
C         3.47827473825926    1.35162078700958   -3.34434339701844
C         4.13026874566510    2.48235462766133   -2.51552540644311
C         4.61218265057386    1.81242021433355   -1.22408946845483
C         5.26803163345385    0.58139076019317   -1.92480561451883
N         1.17571456382359   -0.02067403121895   -0.29967793992878
H         0.24988352509670    2.82026608459371    1.20143891999321
H        -0.53922982240095    1.16419759518319    1.30169274611371
H        -0.72305748434900    2.14219130128710   -0.15369384240598
H         3.00305482918056    0.66722729377352   -1.19360417177610
H         3.17467828292744    0.51575487967161    1.64850426969991
H         4.75234326864367    0.24736926489577    0.89051374832938
H         1.41215873560485   -1.24727117975616   -2.61567181116517
H         2.41237415980156   -2.59384796964057   -1.97112601848727
H         3.44815604848959   -1.53285422146212   -3.79110998574153
H         4.42946536288515   -1.81658685864211   -2.35428707874726
H         2.42268841687162    1.19392935290139   -3.09504754327650
H         3.43559013184942    1.52310167398298   -4.42559694292579
H         3.33429158110830    3.20565322309096   -2.31603764159010
H         4.91234707365870    3.00024274803884   -3.08610695837394
H         5.36864635674440    2.38990331631184   -0.68568947056201
H         5.59632316010796   -0.28413085060878   -1.34355122266179
H         6.16639737998377    0.99670212605027   -2.39626420512791
H         0.21038391485208   -0.20747527551095   -0.57158460077513
