33
 energy: -44.335689921365 gnorm: 0.137398056162 xtb: 6.4.1 (79825abcba525fcdf90b791dcacef51065a7a4e7)
C         0.00481701322448    1.90109495873440    0.53440175486851
C         1.34377678142765    1.35536483096603    0.10990312349004
N         2.37658418191517    2.13025083092756   -0.02814327991740
C         3.54716392629183    1.27680909295542   -0.37296560985581
C         3.76709470435717    0.20070754588946    0.72865879115491
N         3.42335853262835   -1.05729204376306   -0.04622406183680
C         2.30367249677384   -0.84824071590913   -0.67420755139240
C         2.22242384333519   -1.55237989598961   -2.03270352171610
C         3.53194947377744   -1.19750984112070   -2.85181416408910
N         4.16780657679611    0.14456297310023   -2.71641711694654
C         3.45011557510214    1.29999372333345   -3.27292018417624
C         3.87837754596365    2.51455122199764   -2.41732902319743
C         4.63716255088888    1.95696343577152   -1.20811394918437
C         5.22569304444516    0.64428747558042   -1.81399199803811
N         1.27172100882667    0.07067920715227   -0.42663720572664
H         0.06258466056338    2.95086276083627    0.26765960091223
H        -0.19936076075828    1.61460491813341    1.56787765514165
H        -0.86095458264757    1.41883242584993    0.04637389882678
H         3.15812318550238    0.59004378226449   -1.08563397947922
H         3.09957328276598    0.40309899329866    1.57665861787274
H         4.78044649723122    0.12113436351377    1.13599296195141
H         1.30962009144532   -1.17753081813832   -2.51198819496075
H         2.08882140297312   -2.62077785104719   -1.83392078576064
H         3.29693032040735   -1.29113852829149   -3.92337022302670
H         4.31594991581125   -1.82059270285047   -2.40275769526255
H         2.36631358970540    1.18485979422647   -3.38865664208430
H         3.76518913344141    1.43022460667783   -4.31412404301248
H         3.00051183073357    3.06210868577738   -2.06226778373033
H         4.57934981627814    3.15645857697294   -2.96688407075024
H         5.41041905765755    2.66777578444039   -0.90410932660492
H         5.48857471418673   -0.16103064044105   -1.12325643666161
H         6.06535990835569    0.95915673644677   -2.44457478889444
H         0.34079476969453   -0.18666258369866   -0.75503139880138
