33
 energy: -44.348371798764 gnorm: 0.114168756952 xtb: 6.4.1 (79825abcba525fcdf90b791dcacef51065a7a4e7)
C        -0.05713727533836    1.83810446208210    0.64639144262196
C         1.17816240513880    1.20767615642420    0.05696074250669
N         2.29731919908206    1.55780193185040    0.61472077750748
C         3.33681231446212    0.72459941879766   -0.05067369957794
C         3.25067838984780   -0.74143047372055    0.46243224737520
N         2.84538464939877   -1.39694485256936   -0.84416594614502
C         1.97502000282127   -0.65636907866155   -1.46527417841710
C         2.11690068957357   -0.70878493425516   -2.99008467942500
C         3.63706809177058   -0.46552309624656   -3.36644503575358
N         4.48369702643385    0.64154079806867   -2.83594052910563
C         4.14698588872219    2.06685335610448   -2.71385049898629
C         4.47749669627744    2.51427065885000   -1.27122274752180
C         4.72112082134607    1.23101846398145   -0.46949273872575
C         5.24440843236539    0.30758543533470   -1.61405206078870
N         1.04722059542408    0.27285542386404   -0.96892869110914
H        -0.95271975261796    1.71392531120622    0.04721494872946
H         0.08859093719746    2.88511481169824    0.91910035332362
H        -0.18647927792539    1.28171448097953    1.59191226957073
H         2.92723397231601    0.75027778587357   -1.03173521587082
H         2.53477371215721   -0.90406835649108    1.27893715411530
H         4.25269543190352   -1.04675503534289    0.78160874326510
H         1.52663333734914    0.04297792851741   -3.52848356507131
H         1.78148495252484   -1.70920797718459   -3.28246866575043
H         3.64136336690426   -0.21414698461790   -4.43837055765729
H         4.13203100939236   -1.43622508074583   -3.23495350933405
H         3.10884860381690    2.16811471735535   -3.05044314328805
H         4.83341004195012    2.55183842429832   -3.41666503447390
H         3.67844714615302    3.08706893157551   -0.79168356420984
H         5.40510496860385    3.10137947308992   -1.28747266649573
H         5.42327526851481    1.37307895838089    0.35658024924915
H         5.00307862838879   -0.74365246797238   -1.43679954476443
H         6.31444873649164    0.52822305651304   -1.70433238220380
H         0.19132702084716    0.31899549518190   -1.52210903073882
