33
 energy: -44.338649466133 gnorm: 0.137860190799 xtb: 6.4.1 (79825abcba525fcdf90b791dcacef51065a7a4e7)
C        -0.05148380944390    1.90372202676305    0.51593961884479
C         1.31392957134045    1.38337979889625    0.14753224500519
N         2.34773946577954    2.16757903543275    0.09788434950414
C         3.46832365856221    1.30983161572910   -0.37759710600759
C         3.76478514681584    0.24859841145543    0.72050812016662
N         3.37637077468236   -1.05794932513898    0.05475422377380
C         2.31763894443994   -0.83631643408112   -0.66755341154165
C         2.27941158155176   -1.66136254572087   -1.95819751508042
C         3.53011244652493   -1.21742871062474   -2.82445525577974
N         4.12004494171329    0.15147717659790   -2.86784159255447
C         3.46406355784402    1.38199539448852   -3.33185623996238
C         3.94154881215716    2.57431087681466   -2.47105075100575
C         4.58141837888112    1.84417233229991   -1.28516519097921
C         5.19324201045891    0.56659468722163   -1.94094086411486
N         1.30347567392503    0.07213612082337   -0.32577045536683
H        -0.03260211352634    2.71355910265540    1.23726361337736
H        -0.54832879962178    1.05233463231707    0.98511134467297
H        -0.35903043226085    2.21406486415140   -0.49865941850596
H         2.94462021557171    0.74189843372070   -1.10840631590212
H         3.29499401717633    0.53354194276438    1.67116806592010
H         4.81100005280143    0.23273321913708    1.04349038566629
H         1.48927336223910   -1.27240080835372   -2.61228212763332
H         2.32950939850609   -2.75186206875810   -1.87370274015418
H         3.36593878739502   -1.57227811039484   -3.85370820551603
H         4.39637302715098   -1.69689900151451   -2.35091380350814
H         2.38227012508570    1.20669423943746   -3.34828693474391
H         3.80367078318384    1.51247925294898   -4.36528635403214
H         3.14804718767881    3.23100618048776   -2.10275423551030
H         4.67782146159407    3.17527617838427   -3.02074268099885
H         5.22953079993779    2.48615312491852   -0.68233056219247
H         5.39808766070895   -0.24026781848705   -1.23258303535086
H         6.05328664390589    0.92820989450727   -2.51659303362704
H         0.33343982632092   -0.18795911749706   -0.50485739514934
