33
 energy: -44.342170242244 gnorm: 0.133548458510 xtb: 6.4.1 (79825abcba525fcdf90b791dcacef51065a7a4e7)
C        -0.21215595082607    1.70824192454498    0.69516462899891
C         1.08366045386567    1.15424877601832    0.16151201342856
N         2.24865801080666    1.61251055069323    0.50643672883166
C         3.31377049429390    0.77761408557119   -0.11485663803275
C         3.27388855069019   -0.69819689457521    0.37537981616662
N         2.85178656146576   -1.37135468746490   -0.91684673189590
C         1.92828423890874   -0.66354278335275   -1.49814552855229
C         2.06917559318223   -0.50707302717133   -3.01590422143519
C         3.60790798787532   -0.40693794413130   -3.38197518708276
N         4.50163789423765    0.50059232168144   -2.60644844904763
C         4.26966322525759    1.93833298026922   -2.80364329448731
C         4.59895164367542    2.49547335883231   -1.39945021587358
C         4.71550622853708    1.29876087089794   -0.44910598341367
C         5.37099578001844    0.27896631520581   -1.43243046356268
N         1.03158373985741    0.20962776411939   -0.86243321260681
H        -1.11222240002525    1.53144552730669    0.11626539968071
H        -0.13089911713892    2.77245557940551    0.92469492373761
H        -0.42625332490190    1.25505470440488    1.67958956039026
H         3.00888451036030    0.75261125738145   -1.13334320419191
H         2.58805015625650   -0.91635308474908    1.20464721688909
H         4.25988771534861   -1.07775109599129    0.66326717124570
H         1.47575358105485    0.39153518741158   -3.22516460533613
H         1.71593109662690   -1.36826897786869   -3.59244409999255
H         3.76850380588870   -0.14659072168512   -4.43964291549798
H         3.97819294158417   -1.41987599347402   -3.17853916063931
H         3.28663282491113    2.11222306681306   -3.25607114833411
H         4.96077111122033    2.39230095167823   -3.52240603333272
H         3.84924793468699    3.20439993400509   -1.03626523365924
H         5.59142162172859    2.96441282802718   -1.42218878031653
H         5.38177890925342    1.58503474309681    0.36926227895949
H         5.23018700782582   -0.75739553431003   -1.11480385637596
H         6.34122233574311    0.63170003614028   -1.80128965277748
H         0.09999352718307    0.10167614304193   -1.26390216659279
