33
 energy: -44.345118413236 gnorm: 0.125548857993 xtb: 6.4.1 (79825abcba525fcdf90b791dcacef51065a7a4e7)
C        -0.06462608709652    1.85181837862019    0.67193169931129
C         1.27463043318120    1.39171605303549    0.15663418468682
N         2.33610381002037    2.13936356911083    0.13441479309256
C         3.46683040754519    1.32505327878315   -0.39082637541931
C         3.78494587903178    0.26236919442322    0.69979065005793
N         3.38776401772047   -1.00428627526380   -0.03436972285530
C         2.27135077739615   -0.76119692242928   -0.65589331876554
C         2.20365575379081   -1.46183492034372   -2.01694012665231
C         3.59982538184399   -1.25002928316563   -2.73637123487115
N         4.26575594920607    0.08150379302692   -2.82217449786115
C         3.57230638069122    1.22880005112232   -3.42436653268576
C         3.92636649179741    2.42989181499339   -2.51738556289542
C         4.60304562584882    1.87707254911326   -1.25827630489116
C         5.27618054138136    0.61642930856318   -1.88616365944321
N         1.20646995963193    0.11985460147570   -0.41011734789104
H        -0.08316648175021    2.76210484216655    1.26145329398564
H        -0.60567231253593    1.07300847190842    1.21282138063857
H        -0.80176899247206    2.20713484838576   -0.07014601497335
H         2.95356573344836    0.84737671717194   -1.19037623046459
H         3.13655079692664    0.36587448817168    1.57985958286184
H         4.86865293742667    0.26393200182608    0.85698940034086
H         1.39627691971922   -1.08761053885546   -2.65844760565144
H         2.06048992990489   -2.54263763424285   -1.91590835697056
H         3.55244198671173   -1.45573218127837   -3.81696082130688
H         4.33782870320515   -1.90609274092728   -2.25733836204714
H         2.50067214834314    1.02404716819535   -3.52902704310136
H         3.95502548667706    1.61448536787002   -4.37573913385873
H         3.07001069970133    3.02413837885702   -2.18563015349685
H         4.57713662261366    3.13851537024414   -3.04631733435755
H         5.34484184226279    2.50606622365653   -0.75857243018836
H         5.51653740638800   -0.15911089497421   -1.15436749547119
H         6.13165308474486    0.89473518449986   -2.51268605841668
H         0.30226101745934   -0.31294060994110   -0.59928842428146
