33
 energy: -44.342195751272 gnorm: 0.125415508945 xtb: 6.4.1 (79825abcba525fcdf90b791dcacef51065a7a4e7)
C        -0.00152860648634    1.86253947116177    0.43945900139746
C         1.28569746361861    1.15863310014016    0.09536806217967
N         2.37419560614958    1.53892578700768    0.69264981999781
C         3.48262290911977    0.78898042036036    0.03958548520555
C         3.31646493872897   -0.66069237389455    0.57882635432269
N         2.91512256417182   -1.41898608565136   -0.67220357956844
C         2.02316454734517   -0.77855323453582   -1.36935434333165
C         2.10773281882744   -0.96129410233969   -2.88836013298487
C         3.52625158438868   -0.46883345205359   -3.39533092432869
N         4.24599022333578    0.64498985968871   -2.71328989820852
C         4.00709231977230    2.09378083272409   -2.77435340286064
C         4.29756921254707    2.58701246606622   -1.33805949341480
C         4.77761055432932    1.37346333155079   -0.53449324307171
C         5.18891409799506    0.33004476696375   -1.62016428663812
N         1.14185450523853    0.21968453287427   -0.92500906431132
H        -0.72023559046209    1.13350252490556    0.79788097802764
H        -0.34402281469350    2.38316206588719   -0.45691556988392
H         0.14403164924203    2.62287094838854    1.22750535171476
H         3.04650354075295    0.66645224591057   -0.92253833115409
H         2.62100287700596   -0.86320265468966    1.40403720743783
H         4.25630314568230   -1.09328031339004    0.93758350268391
H         1.35890328850727   -0.40074111291505   -3.46148401785135
H         2.08123572130540   -2.01985626470829   -3.16689634885003
H         3.40818685498060   -0.16341151712258   -4.44652590021954
H         4.17544568384264   -1.34641336805186   -3.50909014778142
H         3.00543682619200    2.40175601982481   -3.09546871781003
H         4.84077807361071    2.45379448192988   -3.38729315448375
H         3.43765421915877    3.15935459126598   -0.97818928577396
H         5.14112339630467    3.28886571275546   -1.37322033544385
H         5.64314203409588    1.62395006711100    0.08495027942798
H         4.98876537282481   -0.68634156409230   -1.27136782896172
H         6.21518636146294    0.47985193838724   -1.97532734455751
H         0.43952312114621    0.40446721265715   -1.64144272620192
