33
 energy: -44.348506002671 gnorm: 0.114306525058 xtb: 6.4.1 (79825abcba525fcdf90b791dcacef51065a7a4e7)
C         0.03304878879483    1.99712930258356    0.38296843176632
C         1.26111944032960    1.16495527749449    0.11808622460037
N         2.37968461429579    1.51134286669595    0.67935606526048
C         3.43186782020452    0.74368967710192   -0.04254507722042
C         3.42724069224667   -0.74187605813822    0.41898871685236
N         2.89096532241837   -1.43513891775263   -0.81913740320679
C         1.97972931162241   -0.74127724439673   -1.43555239866550
C         2.08109555609452   -0.90548542979305   -2.95564620492396
C         3.60266207714912   -0.59113066634680   -3.26829423232692
N         4.35716175502739    0.56729191108706   -2.70919367959957
C         3.85230656127183    1.94670998424837   -2.66311471899374
C         4.26012777349444    2.61537664373657   -1.33001261284628
C         4.73066772028636    1.40976510024774   -0.50906627950414
C         5.28470042478313    0.40787797389322   -1.57012446678876
N         1.12663446135320    0.24970032040100   -0.92484562948221
H        -0.90005542962460    1.54361911914114    0.69942685960052
H        -0.11002189003299    2.57669790622362   -0.53107126010669
H         0.32508521339356    2.63790360056087    1.23410404249635
H         3.03285034152703    0.68343771860118   -1.02644052343433
H         2.79512466464557   -0.92231085035460    1.29849054403343
H         4.38789739223927   -1.16946654553997    0.72466821158103
H         1.36213505155312   -0.23533581352328   -3.44291574050995
H         1.94762864495691   -1.93742005268685   -3.29643337511132
H         3.57914280558230   -0.48362085221047   -4.36379466974490
H         4.27062759734080   -1.37130243090528   -2.88139018722644
H         2.79281164637119    2.10647380531807   -2.89381699615976
H         4.43558117311180    2.44535577024746   -3.44508659460431
H         3.39839026453121    3.09069863942944   -0.85250518895345
H         5.03549494014374    3.37278737751351   -1.50480581324801
H         5.41426129819250    1.67374032450236    0.30248503530203
H         5.35056165512030   -0.63386129614719   -1.24577704668388
H         6.31062581804519    0.73753722343141   -1.77166755596860
H         0.24145858965240    0.30805518853178   -1.42858126342791
