33
 energy: -44.339774278060 gnorm: 0.130554294100 xtb: 6.4.1 (79825abcba525fcdf90b791dcacef51065a7a4e7)
C        -0.02977998004405    1.97254261557259    0.46106098431526
C         1.23390097863540    1.36030506106062   -0.08584790465654
N         2.33427851399097    2.03320319024252    0.06439731576871
C         3.51586605753288    1.24627154760562   -0.38517095158656
C         3.86075812726303    0.18982907147369    0.70336896548102
N         3.28205429947152   -1.07182751301668    0.09141676974052
C         2.17609686667166   -0.90862422242725   -0.57340303501114
C         2.26337489246223   -1.55404682264597   -1.96039144075754
C         3.63665247060829   -1.13537407535308   -2.63162477223265
N         4.17726707920703    0.22645589543448   -2.90904325879268
C         3.38907736861321    1.40530108231791   -3.29488941227163
C         3.96843244135297    2.54313885515343   -2.42295629174986
C         4.63918276044123    1.86832572820395   -1.22146506640786
C         5.24891410987286    0.65070504659251   -1.98448674266897
N         1.12873519183839    0.01702544268834   -0.44365333887539
H         0.22409323204994    2.99884880932019    0.70343447116612
H        -0.17884382389432    1.48381655163860    1.42582227586786
H        -0.85042044337743    1.81621766266876   -0.26172566238349
H         3.05039194939767    0.70882076375083   -1.17597813314215
H         3.42677908270781    0.41754617636554    1.68594616647353
H         4.92760758456529   -0.03231126772065    0.81116867018631
H         1.33517476213225   -1.31994221897020   -2.49618605077151
H         2.29504442375247   -2.64476122099130   -1.86996181076496
H         3.64810278442086   -1.63077679452069   -3.61482249139005
H         4.39892278983004   -1.67981077022088   -2.05972154690538
H         2.35755553629420    1.04307772083472   -3.21720776548330
H         3.64055043887790    1.73480189718346   -4.30905281685698
H         3.06699619883545    3.05838565982527   -2.07876259019753
H         4.61602722491300    3.32718243084193   -2.83685795964183
H         5.39707755329790    2.50318734491852   -0.75440528782330
H         5.56041281434823   -0.17163674581966   -1.33527014688253
H         6.09091995018037    0.92687694727020   -2.62991140414899
H         0.20169829708901   -0.20668009486472   -0.80593724358390
