33
 energy: -44.346259529415 gnorm: 0.111909068055 xtb: 6.4.1 (79825abcba525fcdf90b791dcacef51065a7a4e7)
C        -0.09671416383191    1.86609650055775    0.46140445692480
C         1.24562176669092    1.30343582345027    0.07104445344584
N         2.24616775042926    2.12926911382426    0.01533657665304
C         3.47004607767539    1.35635095230934   -0.33429398606833
C         3.80557381228200    0.32307078345830    0.77912132032279
N         3.47055440433387   -0.99819784230306    0.11340953871790
C         2.38360257851683   -0.88800700549450   -0.59239231241217
C         2.38711851281002   -1.65958960718131   -1.91623994107339
C         3.42827510688134   -1.16015764305286   -3.00173200453525
N         4.10356586281763    0.16859760921506   -2.95485000295054
C         3.46880026928237    1.46186920773865   -3.24522470055157
C         4.11706989154671    2.59826097628239   -2.42123761883180
C         4.63818066315725    1.79928997431775   -1.22167569246823
C         5.09267477679553    0.46836038184794   -1.89890242412879
N         1.30396619440292   -0.02326049466414   -0.35316955198193
H         0.05937663020936    2.91662111384485    0.68171019175629
H        -0.66622528018326    1.48393502003157    1.31078495267485
H        -0.70328053734521    1.83354401116706   -0.46126903335632
H         3.07103429141741    0.76054374402517   -1.11959575143707
H         3.10730511464030    0.48619302892413    1.61066375130669
H         4.85602040979783    0.37184680299945    1.08460081663974
H         1.41688030082928   -1.73699188374582   -2.42228639001987
H         2.62540848967954   -2.68689509095242   -1.62179179444560
H         2.98622843747187   -1.09817069467770   -4.00820360272169
H         4.35307449219378   -1.75106572005307   -2.99103647112840
H         2.39929585851595    1.52670314622702   -3.01449895770627
H         3.53547291540714    1.65394621848727   -4.32179243342863
H         3.38685004471179    3.33087228062543   -2.06543497031494
H         4.91341701013707    3.13437750740775   -2.95399296221321
H         5.42189544595469    2.25514587714234   -0.61045955251605
H         5.24331193783917   -0.35688300196846   -1.19815892005368
H         6.02667878113173    0.75890329310617   -2.39391665267627
H         0.35486971275856   -0.29169722658283   -0.61364758033299
