33
 energy: -44.342307898348 gnorm: 0.128849285367 xtb: 6.4.1 (79825abcba525fcdf90b791dcacef51065a7a4e7)
C        -0.05598031882605    1.74456828982273    0.79229513758778
C         1.13865500258793    1.24120912731022    0.02397898723955
N         2.29132410205749    1.52198016852701    0.55191631044852
C         3.34784144974108    0.74409614746800   -0.15249104150697
C         3.23412837151624   -0.72006420026346    0.36058226960771
N         2.66425914024105   -1.48925165402795   -0.81617627814300
C         1.88053281015750   -0.68584265515433   -1.47349625768258
C         2.14610877893970   -0.62470575400354   -2.98136107782729
C         3.70649128392980   -0.48889243189211   -3.22321549534182
N         4.59676637624605    0.61922264199402   -2.77233047182093
C         4.09420738134788    1.99943989458392   -2.81956450920095
C         4.39619625209648    2.52478910214515   -1.39709995667028
C         4.71917119456644    1.35321361637649   -0.46331304992036
C         5.30490092914384    0.34814873701273   -1.50414915386247
N         1.04107679173529    0.35596133279264   -1.04854118952092
H        -0.06723061796900    2.81928790381386    0.93841866912563
H         0.12479778387968    1.27572685591991    1.76149301999243
H        -0.99682967256747    1.34096060666081    0.37731065029016
H         3.03609161242421    0.68789888904503   -1.16765083195470
H         2.60036053024271   -0.91605038083762    1.23555575119653
H         4.23984965145779   -1.08751064801621    0.59002222211110
H         1.58637625403603    0.20910525884457   -3.42283023038700
H         1.84561282541743   -1.57672678118824   -3.43102375876070
H         3.83970575231021   -0.51259651300140   -4.31588413057881
H         4.19288770839179   -1.37949740114683   -2.80514616430513
H         3.04495747383244    2.11374396540227   -3.11500774619578
H         4.76600447922101    2.48140955300453   -3.53840441854739
H         3.69365804542550    3.24493575838139   -0.96772280814198
H         5.35581429980614    3.05010453339855   -1.48980825688946
H         5.42911146576351    1.61649155291803    0.32552671392882
H         5.09004421451220   -0.68470454406198   -1.21812406489294
H         6.39104606843306    0.46356048247690   -1.59788610201670
H         0.15820665987141    0.48412495784404   -1.54331954261039
