33
 energy: -44.346147000548 gnorm: 0.112203728349 xtb: 6.4.1 (79825abcba525fcdf90b791dcacef51065a7a4e7)
C        -0.01228462804902    1.82289418520000    0.64500064962987
C         1.28398024097323    1.30945181805287    0.07324194587662
N         2.37871128838555    1.97976980485858    0.26928772202720
C         3.50502469173228    1.19498730128662   -0.30782292663619
C         3.74279478826629   -0.01237380445635    0.64385188187335
N         3.16440423718076   -1.16986687578955   -0.14787730003339
C         2.13025544999046   -0.87558976345657   -0.87979244325625
C         2.11720924262462   -1.49305880323850   -2.28210708747321
C         3.44268007982198   -0.99230469005186   -2.99211041021441
N         4.26469422209463    0.23729317533660   -2.80187935917483
C         3.74292942892676    1.54506917584160   -3.22292528340083
C         4.11808651731954    2.61242738501650   -2.16907611454144
C         4.71854212479569    1.82631445421273   -0.99846113341533
C         5.26321338094187    0.58288995264030   -1.76904743366419
N         1.15259524934811    0.08781641213423   -0.58541546777038
H        -0.15291600139685    1.73640385168871    1.71702823286873
H        -0.86326495778532    1.32269887839744    0.17865885736327
H        -0.22957817605897    2.86879438624769    0.36360222723797
H         3.06546420329983    0.75711837892535   -1.17150856073935
H         3.17542039877121    0.20069559407334    1.55946019357244
H         4.78599009274659   -0.24009451332048    0.88679571149336
H         1.32724888058221   -1.18409250029257   -2.97776414760630
H         2.07573132005105   -2.58277080018785   -2.18389453168776
H         3.13782830982938   -1.00317586137395   -4.05002341719346
H         4.15057329713003   -1.81970442192107   -2.85486054793905
H         2.66644175790100    1.58905388849698   -3.42421394793513
H         4.25953096911503    1.80521025528283   -4.15340170331612
H         3.24113045637598    3.21259982921392   -1.90969806126042
H         4.92765380901468    3.26888972063677   -2.51414991258922
H         5.33215190380453    2.48065988883804   -0.37323020223556
H         5.37299030415593   -0.23312094338684   -1.05013513428598
H         6.18214817323075    0.88582839621123   -2.28441612664837
H         0.16996897537234   -0.13426254066484   -0.74609445044749
