33
 energy: -44.345671845809 gnorm: 0.121936373258 xtb: 6.4.1 (79825abcba525fcdf90b791dcacef51065a7a4e7)
C        -0.16229221867728    1.76432785513847    0.65820293404554
C         1.11082125687579    1.11751947745409    0.17689771529315
N         2.24730826130743    1.67458163403458    0.46719978259653
C         3.33994039809650    0.91693651401102   -0.20336047658989
C         3.36008178271919   -0.49572811079565    0.44772584552109
N         2.89208521029076   -1.42129379918554   -0.65928288655320
C         2.00687341449823   -0.75106903351626   -1.33674977557360
C         2.09226788164907   -0.81478199309072   -2.86533508743309
C         3.60255719030335   -0.61933986265876   -3.30415275451591
N         4.38651619188599    0.53112455350414   -2.76969419080942
C         4.16174456788686    1.98009499103433   -2.86848000480640
C         4.55480510933470    2.63379532780362   -1.52357341114004
C         4.73050574588963    1.44054953522744   -0.57797641440976
C         5.26298737324477    0.37810800819303   -1.59003167233658
N         1.03523893774848    0.05115562351522   -0.71788725770173
H        -0.39741566370055    2.61473614682703    0.02731180747850
H         0.04806982202269    1.99677872116746    1.70393327800554
H        -1.01673213154109    1.07521355372487    0.78214932541299
H         3.03078884670107    0.80013316426889   -1.21414125820875
H         2.78243943696496   -0.67760487775041    1.36364124414946
H         4.42723599779258   -0.71475526145095    0.55882881573307
H         1.45619143296073   -0.04572246704496   -3.32073656652801
H         1.70283787013786   -1.76136141668340   -3.25414099083775
H         3.63232626072114   -0.55133614045292   -4.40266175056011
H         4.11127607676592   -1.56658487476626   -3.08398774014999
H         3.07930151986085    2.11084640629370   -2.98027718087230
H         4.75800218714294    2.38002898070631   -3.69604665377192
H         3.78501906100536    3.33160509352044   -1.18148154721005
H         5.49725884895033    3.18901830583547   -1.61805260547448
H         5.38909954505904    1.54453978654778    0.28864857390711
H         5.21099643908737   -0.64248712112107   -1.20216290516037
H         6.28989189088718    0.69246297834310   -1.81018119713660
H         0.21238808274951    0.11458186302609   -1.31754115557134
