33
 energy: -44.343151772954 gnorm: 0.148354084897 xtb: 6.4.1 (79825abcba525fcdf90b791dcacef51065a7a4e7)
C        -0.03894190448915    1.89071946836426    0.61398224233642
C         1.24959417872463    1.32743993184172    0.07248005036978
N         2.30509273001618    2.07766764807900    0.16879934579604
C         3.42813202388316    1.30557917837423   -0.43135422172877
C         3.77041796160179    0.27599496305396    0.68342696050746
N         3.34741027316677   -1.02710993577681    0.03216428599384
C         2.26409226085128   -0.85977917095527   -0.66796785959109
C         2.25113500941245   -1.57815899414316   -2.02136622960744
C         3.60393930927510   -1.16643800501100   -2.73700490650510
N         4.21563885850540    0.19043871127248   -2.82928317611976
C         3.47105022912513    1.35237086793594   -3.33455308830599
C         4.08235558856409    2.52930724920639   -2.53974432170272
C         4.58512764976168    1.91979766689402   -1.22651234245282
C         5.21447448882448    0.62564402742745   -1.83121345631738
N         1.20033957587488    0.01057027921520   -0.38239683690342
H         0.00746468844164    2.96277324745930    0.77224793677685
H        -0.20975018275199    1.38089771887806    1.56411057919974
H        -0.77778587015508    1.53256499695298   -0.12503316087940
H         2.96776399321582    0.73743164226962   -1.20347153169005
H         3.28804653007267    0.57000456226429    1.62498259128866
H         4.83319573275522    0.12493111735632    0.89980162991583
H         1.30832983531035   -1.34196858526611   -2.53005945760722
H         2.26771912572288   -2.62268022364876   -1.69343522180244
H         3.31676635301355   -1.36005749077102   -3.78212495258635
H         4.39337706056248   -1.86347572275772   -2.42802738651677
H         2.38623626919838    1.42610182682439   -3.19664040666545
H         3.72348104985616    1.40544076910827   -4.39935314901253
H         3.24192062201123    3.20050507820498   -2.34049971613827
H         4.81923583466014    3.08899613882463   -3.13065359713607
H         5.31639750980835    2.59034214481527   -0.76693305570222
H         5.38317985518375   -0.23665026210227   -1.18102370506288
H         6.08350339708945    0.78782990054877   -2.47952067412885
H         0.41060592692255   -0.16597340965219   -1.00356049496800
