33
 energy: -44.340353616738 gnorm: 0.130277931944 xtb: 6.4.1 (79825abcba525fcdf90b791dcacef51065a7a4e7)
C        -0.07170372935394    1.83987604244149    0.62948918983323
C         1.19872840006989    1.23957970336580    0.08498922898522
N         2.33556860569824    1.61703494126864    0.58630562621829
C         3.36651405125635    0.73140648642691   -0.02224667499282
C         3.28482788254233   -0.76112756147276    0.40857799116638
N         2.78368885155683   -1.45219427491767   -0.84539466667513
C         1.92055172830585   -0.71732179865217   -1.48314013793238
C         2.12673798184750   -0.69950548323792   -3.00139388102136
C         3.65808584976076   -0.46638790733195   -3.33659871270750
N         4.53335116997214    0.60725242898865   -2.78431879380785
C         4.03476351073013    1.98931179802584   -2.75087468013642
C         4.51775530633565    2.56776589233144   -1.40079903170369
C         4.68939855933487    1.35713425499630   -0.47680252334002
C         5.18648457142362    0.28661561503410   -1.49830625239204
N         1.11094902233832    0.28653064117474   -0.92865614917771
H        -0.30183318120529    2.88600472158887    0.45873755210999
H         0.03621664526108    1.68003664437491    1.70403193180247
H        -0.96692573503096    1.28618962877655    0.29435084840373
H         3.00802465765397    0.80132086765446   -1.02099230346818
H         2.61384926897783   -0.89805982785725    1.26688335971371
H         4.29861270076695   -1.16168236442663    0.51312975063051
H         1.48367587857539    0.08244334841921   -3.42384325357763
H         1.91044611208738   -1.69390423640397   -3.40540789717608
H         3.77408259430483   -0.35516965690426   -4.42582227970639
H         4.27195939317313   -1.30200247511359   -2.97680957231554
H         2.94099945353679    1.99449586454339   -2.68065495648867
H         4.41140432805298    2.57328210024702   -3.59790318444242
H         3.80683047659546    3.29353794255975   -0.99536507793864
H         5.51211552077906    3.02895687078791   -1.46379563757213
H         5.38140151403434    1.53227782697576    0.35148201422544
H         5.08252858787930   -0.79627531027051   -1.39200452898549
H         6.27093220236746    0.43061955530226   -1.56939741438155
H         0.20072703428120    0.27664085142934   -1.38918772406413
