33
 energy: -44.345049913513 gnorm: 0.124528966269 xtb: 6.4.1 (79825abcba525fcdf90b791dcacef51065a7a4e7)
C        -0.11682058612671    1.83886309749340    0.66255886928453
C         1.23009360186433    1.39866800598152    0.14983655305077
N         2.26962859296621    2.17036626801559    0.04961159150911
C         3.38379216163634    1.30234135441976   -0.42229355655907
C         3.72278547958441    0.30976028870776    0.72653487799623
N         3.31654074348506   -1.00710503926962    0.09250658017954
C         2.22400141183964   -0.87279777827896   -0.60037285477918
C         2.21235660862743   -1.44507228644074   -2.02174222681606
C         3.56715287383058   -1.15380375152249   -2.79078192907288
N         4.31629194643454    0.12125707090668   -2.98265838759603
C         3.69999981923385    1.36509930310841   -3.46519000318344
C         4.09328909394496    2.52038911867075   -2.51586210849364
C         4.57208686605792    1.82221914783040   -1.23829751170165
C         5.25296327925447    0.61148232567791   -1.95040577426551
N         1.23879921306278    0.06088086176599   -0.24225332958388
H         0.04067715397283    2.87112516057630    0.95603870216306
H        -0.35120239531129    1.15830235345495    1.48337540664989
H        -0.86373768084638    1.67108560577256   -0.13385456976376
H         2.96856007708241    0.65331935364188   -1.15526576024545
H         3.15235133810384    0.42386579929429    1.65778977185827
H         4.77375864951894    0.12889421703753    0.97528723977135
H         1.26572687922886   -1.14970857899696   -2.49087839120743
H         2.19754123757234   -2.53767545469464   -1.95219227595162
H         3.31848383624991   -1.52708820144472   -3.79629430886809
H         4.25686223756381   -1.94603464183913   -2.47264381889871
H         2.63061990892567    1.13480366742267   -3.53351291560829
H         4.02865349296769    1.47160842735504   -4.50489162912932
H         3.15720495645447    3.05687258885253   -2.33567374354709
H         4.87662208697014    3.15927773317401   -2.94438128499958
H         5.24984115852222    2.46001572928240   -0.66430859828960
H         5.58806846111349   -0.16904549798716   -1.26248100690141
H         6.05753324429422    1.07671324346839   -2.53182224613201
H         0.27640946811016   -0.27210424973072   -0.30240403823761
