33
 energy: -44.340289655014 gnorm: 0.123998338823 xtb: 6.4.1 (79825abcba525fcdf90b791dcacef51065a7a4e7)
C        -0.07711709481358    1.81063063306400    0.55520954636996
C         1.25309375318562    1.31722533485036    0.04734734075152
N         2.26139715406976    2.12295729932768   -0.09518858587653
C         3.46101134503028    1.30437869694438   -0.42439525591216
C         3.72345530051826    0.34097314707081    0.76846404712880
N         3.35587337843258   -1.00209879981318    0.16663165791635
C         2.28518993572167   -0.96957946711855   -0.57116370244491
C         2.20101518497878   -1.55461280536023   -1.98487344048945
C         3.53399584267499   -1.13510509644320   -2.73247508230579
N         4.19778121362433    0.18985259383728   -2.89885460870446
C         3.40752764405788    1.38723242700361   -3.21756621108118
C         4.14559566869511    2.54772183665496   -2.51108592905574
C         4.63640118508824    1.87799770977509   -1.22289360996356
C         5.20600740478331    0.58966048931518   -1.89543393421703
N         1.27746815650310   -0.01427664818008   -0.36495479715618
H         0.19062822564048    2.75304969249784    1.02067670602935
H        -0.49264935152705    1.08360821711800    1.25564433355729
H        -0.73799488526759    2.04030499892987   -0.29965829467641
H         3.10726775953540    0.68546072305246   -1.21350963868129
H         3.35740871437222    0.67140140842813    1.74952362954323
H         4.80719456049094    0.28165016592257    0.91380803978220
H         1.35204359669860   -1.16735025159060   -2.56168473461192
H         2.18300686644925   -2.64489492615614   -2.08386316973442
H         3.34287913186212   -1.43905315727906   -3.77330297504610
H         4.36036142496371   -1.80148005445341   -2.45389835446419
H         2.34516693683781    1.39615230899703   -2.94814524759082
H         3.56032368986800    1.48658286470945   -4.29789938424856
H         3.37376823375301    3.29541429386931   -2.30669837251317
H         4.98161514721686    2.97585848145851   -3.07958251593072
H         5.41519849266545    2.52028963937246   -0.80273356972253
H         5.47061895457636   -0.30031066856017   -1.31863958428434
H         5.98516263074277    0.94787975276347   -2.57837891396978
H         0.38939692327750   -0.40651511725467   -0.67827520138060
