33
 energy: -44.345246117002 gnorm: 0.117800047878 xtb: 6.4.1 (79825abcba525fcdf90b791dcacef51065a7a4e7)
C        -0.15377605511077    1.65875257470346    0.52121626152278
C         1.21226814512018    1.18854096925962    0.09266289116662
N         2.31663708888408    1.71865325893065    0.52341389149524
C         3.43097588395949    0.91406726459390   -0.04965904397622
C         3.30176873880789   -0.52240712630650    0.53325367552052
N         2.99245095916357   -1.25564383317373   -0.75819798782836
C         1.98439342182282   -0.75026878711630   -1.40640983200393
C         2.05933541930837   -0.84967623488621   -2.93363819667813
C         3.53103573628411   -0.46793395371615   -3.38096735424746
N         4.41949842628322    0.51755372074368   -2.70033960483412
C         4.01931324093636    1.93163598058270   -2.70474748283831
C         4.62910376854727    2.60429397624979   -1.45323591772334
C         4.80474459324515    1.39297335491083   -0.53089511314042
C         5.25644172288198    0.26377976687446   -1.50939706084919
N         1.11931262298516    0.24870410246990   -0.93278853261850
H        -0.56894269142805    0.83057944747124    1.08536770229587
H        -0.88380395360546    1.87380194076322   -0.26150372058465
H        -0.10882628388330    2.51322429052641    1.21990531581759
H         3.05528807834618    0.75242568742284   -1.03130366770246
H         2.44224845806191   -0.67686508701088    1.19885000665458
H         4.16274248989687   -1.04482388565913    0.96329995282942
H         1.28298825332558   -0.18540223581940   -3.33296443576489
H         1.90098797064610   -1.86970974787383   -3.29873556946185
H         3.30511811165456   -0.27325379656112   -4.44082280808323
H         4.11742840152665   -1.39477746194174   -3.34040372857294
H         2.93919415708600    2.11138225593870   -2.75282588118969
H         4.53530572069457    2.43345818227694   -3.53073969976109
H         3.97264602092186    3.34855020342697   -0.99314705230866
H         5.56997123768759    3.09707546880692   -1.73135950316162
H         5.41480025481255    1.60743821182983    0.35082794139067
H         5.28533360338854   -0.75988112425126   -1.12724095450174
H         6.30805840925865    0.44671386696213   -1.75930745477019
H         0.21835257240912    0.26201528076210   -1.41110328409507
