33
 energy: -44.346859610877 gnorm: 0.117821379329 xtb: 6.4.1 (79825abcba525fcdf90b791dcacef51065a7a4e7)
C        -0.20186963077067    1.63342420917105    0.73610486284432
C         1.09657416249803    1.14925044602409    0.14411401637765
N         2.24044731179546    1.64810572426907    0.50313190679300
C         3.35841692770077    0.89664717010419   -0.13167209916535
C         3.28547783125294   -0.53313090315068    0.47689584991032
N         2.85731298428761   -1.34549194736883   -0.73054166128199
C         1.91414628666857   -0.76114822859555   -1.40932109161205
C         2.06907653037832   -0.68897278584620   -2.93205282028219
C         3.59602414634484   -0.51804220724292   -3.32057060498813
N         4.48853084941551    0.55621235175679   -2.79787091789683
C         4.17713379766474    1.99189943460227   -2.83825309261467
C         4.63395496729955    2.51850103839000   -1.45818076478407
C         4.77864536451090    1.29413833261890   -0.54776297125842
C         5.34041199213758    0.30529234679474   -1.61695723990850
N         1.03171318695577    0.17974861656688   -0.85555788901297
H        -0.05726413582505    2.22584989875401    1.63311208361517
H        -0.90162234651107    0.80544550974822    0.86508138107944
H        -0.55671758747767    2.40130569975515    0.02564744793994
H         2.96348551072557    0.87272820021055   -1.11876507813157
H         2.58919300050863   -0.55139438803366    1.32572134830717
H         4.26004256403653   -0.88433856867547    0.83187701697922
H         1.54087841845722    0.21414650495495   -3.26192948351291
H         1.66546626383103   -1.56132367331066   -3.45640102940192
H         3.66274712000589   -0.40497368337223   -4.41372945397734
H         4.09672768148139   -1.45399411377300   -3.04158915721593
H         3.09856925904388    2.07831844092000   -3.01291786408460
H         4.71438548853527    2.56769639957762   -3.59993240506751
H         3.97064191011870    3.20429245207276   -0.92316506820863
H         5.60395842444900    3.03255144885889   -1.47441007643831
H         5.42838244336378    1.28696992505068    0.33166239131708
H         5.16463212693744   -0.75241083351548   -1.40453060740671
H         6.39211266988364    0.55666940731082   -1.79738174346334
H         0.20119976538814    0.33005670429993   -1.42857283858337
