33
 energy: -44.345641322939 gnorm: 0.123707400115 xtb: 6.4.1 (79825abcba525fcdf90b791dcacef51065a7a4e7)
C        -0.09828445644382    1.72295620742804    0.59004527421803
C         1.22175395526674    1.15868899243059    0.13185884014750
N         2.34555350296807    1.63324813561473    0.57690314013831
C         3.43270309355162    0.84729884046112   -0.06955771541080
C         3.29870109270287   -0.60166069638000    0.48044239740675
N         2.85460814980266   -1.36657142544404   -0.75197554583074
C         1.96478583584951   -0.71723575543364   -1.44359825474585
C         2.15302841281790   -0.78774293741624   -2.96264996058026
C         3.67868015699341   -0.56168842870220   -3.32736695930338
N         4.38681503632327    0.57277596597966   -2.66756275545445
C         3.85514774297402    1.94150240786060   -2.72850594720872
C         4.45654651000676    2.57358326857540   -1.45203120105153
C         4.78759930960495    1.39019189891356   -0.53614429559326
C         5.30389102383806    0.31113264120689   -1.53896457202829
N         1.11700211407462    0.28764788160722   -0.95156126636850
H        -0.86794971312346    0.96074053940512    0.53397767406537
H        -0.29185663294817    2.52751024937410   -0.12203628802213
H        -0.06006728276726    2.23545410035774    1.56789707745933
H         3.17587284671999    0.66470572124685   -1.08523161478955
H         2.55036188109283   -0.74396968607587    1.27125680357982
H         4.23855143093348   -1.03465150486765    0.83868138771412
H         1.45633566264149   -0.11632669817309   -3.47961780682097
H         1.89971611034930   -1.82611924791507   -3.20023341317397
H         3.67857257889424   -0.42861549262486   -4.42030991501266
H         4.16792780961261   -1.46877609705481   -2.95004832277667
H         2.76994467857042    2.04269800105818   -2.61287180537362
H         4.21364144038742    2.55116480514226   -3.56524421812709
H         3.78744602766599    3.33609420330890   -1.04286437559773
H         5.43419013107373    3.02459649615143   -1.66701479577698
H         5.56507333513981    1.79847328850671    0.11534559162658
H         5.21403333158513   -0.70896803673626   -1.15676062442100
H         6.33080181461126    0.45862931025247   -1.89324794496367
H         0.25346989066506    0.41749299953667   -1.47895442918319
