33
 energy: -44.331753302825 gnorm: 0.145260791436 xtb: 6.4.1 (79825abcba525fcdf90b791dcacef51065a7a4e7)
C        -0.10336446756610    1.89023718376616    0.71856766083496
C         1.21244994578332    1.36505115569827    0.20510318229797
N         2.30713968515211    2.05846611380010    0.12128010046127
C         3.42246571462144    1.24542256743946   -0.43776391211844
C         3.69725766730567    0.19365617315103    0.67498819224792
N         3.30015643850590   -1.09899068109239   -0.01242412450578
C         2.23122830313480   -0.78113460172472   -0.68184379289950
C         2.25025252810985   -1.38084862577242   -2.09177491978513
C         3.64743502318961   -1.11338785227476   -2.79040083474701
N         4.34446005824157    0.19852235156916   -2.92022285739996
C         3.77510796479848    1.39403654376428   -3.55770247133964
C         3.92367419557962    2.50591755998651   -2.49363332679556
C         4.56077376024217    1.86331922364481   -1.25668893261468
C         5.26522278092654    0.59617328624122   -1.83519327572878
N         1.17919656887138    0.06528614341526   -0.29787775657775
H         0.08110778369755    2.94447541435324    0.89478529526470
H        -0.34923163647651    1.50408888114552    1.70966622347489
H        -0.91857472488414    1.52285218677625    0.06990033839004
H         2.94289890195665    0.66568213716197   -1.18930379514797
H         2.95789866803907    0.38356882829982    1.46424880294238
H         4.73616169721895    0.05123580287899    0.99047152288666
H         1.41145855229137   -0.87491926692189   -2.58563366654247
H         2.05577230674335   -2.45810598803853   -2.11484846222220
H         3.48744404744436   -1.61506074049808   -3.75733408944969
H         4.39916251544342   -1.75180712431121   -2.30887486175646
H         2.73556202029827    1.15821121552540   -3.81266940273954
H         4.22451040185746    1.47779249730538   -4.55337274384811
H         2.96020558634457    3.00517453426057   -2.35576896017554
H         4.67319021618663    3.18045702266404   -2.92796059237033
H         5.29146052849751    2.51863604967146   -0.77476016805021
H         5.23782363519414   -0.16251284141991   -1.04880640995083
H         6.25538356526254    0.80677345773196   -2.25596273304783
H         0.35531649439725   -0.50880640820107   -0.11807072097369
