33
 energy: -44.334477921321 gnorm: 0.123683117694 xtb: 6.4.1 (79825abcba525fcdf90b791dcacef51065a7a4e7)
C        -0.05891073482449    1.85424330593054    0.40717641087258
C         1.17501622580456    1.06637222116823    0.05008102051345
N         2.34645829587290    1.50467219752730    0.39909798437436
C         3.48689637490795    0.74760770952056   -0.18722659519650
C         3.34056727858133   -0.67403364554243    0.42715444262596
N         2.80614413771671   -1.50211861851593   -0.72602730335390
C         1.87999897400922   -0.87912084096819   -1.39377833816445
C         2.12937034437524   -0.77611162008041   -2.90213096083724
C         3.58466359414517   -0.29602672749063   -3.30632449072891
N         4.47317956466551    0.76586691396012   -2.75249481559916
C         3.92525579478315    2.11170548300073   -2.53273507797516
C         4.64394579889858    2.59340257372148   -1.25131123755105
C         4.88738715191784    1.31516791338161   -0.44155054757072
C         5.22589060813578    0.29342608130048   -1.57205201585824
N         0.95078550392869    0.01128594975767   -0.83309407172007
H         0.19776754842658    2.90214695224642    0.51904740439076
H        -0.59855992793094    1.60458393386474    1.32275627004494
H        -0.77830918477136    1.84927245695536   -0.43112541735129
H         3.10729511993357    0.70192494685185   -1.17955288459094
H         2.66322548562813   -0.49414402208707    1.27243467527250
H         4.25097408290322   -1.21402951137757    0.70768748855784
H         1.42386721330657   -0.05538353173111   -3.33370096335259
H         2.05145668268530   -1.75293200248179   -3.39058748498627
H         3.35016135130918   -0.06174928101533   -4.35625567853415
H         4.20924862593224   -1.19817817803630   -3.28272467156538
H         2.84856170959362    2.31414329717354   -2.50069963223425
H         4.32888101709081    2.70696155697217   -3.35922996141450
H         4.15776563897068    3.41860882959081   -0.72291805161392
H         5.57515787243135    3.02484325706756   -1.64133807840886
H         5.52873423581767    1.38280003446103    0.44145480165233
H         4.91142574978797   -0.71932791568778   -1.30709757985606
H         6.24515719662825    0.30681076927464   -1.97545531737697
H        -0.00762248271416   -0.04878878017011   -1.17738516965780
