33
 energy: -44.337551341096 gnorm: 0.131832542986 xtb: 6.4.1 (79825abcba525fcdf90b791dcacef51065a7a4e7)
C         0.00995016843422    2.02551499746050    0.43775585678628
C         1.29741783939978    1.35006943975272    0.04148071613565
N         2.42597758958821    1.98018647911907    0.16598623787257
C         3.55653905222139    1.18800346990139   -0.39240342665732
C         3.83408446568255    0.10780712375621    0.69207100292706
N         3.16091872184574   -1.14241475739674    0.15826010944804
C         2.14993184706328   -0.90932321796790   -0.62617369310053
C         2.30755463244107   -1.65605417811750   -1.95488454183479
C         3.59125629397308   -1.11418212328469   -2.71001172094385
N         4.19205452078105    0.24401982375491   -2.84467788581860
C         3.35952878270909    1.36609221142548   -3.30036493960874
C         3.91842440084544    2.53145000762608   -2.45173583558800
C         4.60380371979967    1.95227704967298   -1.20928914299422
C         5.28028368279824    0.79717479135846   -2.01221388965065
N         1.13890324398206    0.03944529540978   -0.40642791750375
H         0.15937957987974    3.08770008712947    0.59879806229113
H        -0.28184545115460    1.49753410745918    1.34766191747472
H        -0.76785465062232    2.01405365315596   -0.34658914877820
H         3.07743832527256    0.64495936368731   -1.17115953753913
H         3.37672024853911    0.43662429743266    1.63459319709008
H         4.87635779680680   -0.22258326097652    0.75243131793610
H         1.34701558021807   -1.49052817650459   -2.45827522118603
H         2.64743858072093   -2.68222846693829   -1.78086269633211
H         3.55732465538420   -1.57115340856250   -3.71114038301156
H         4.35994948312775   -1.75780534465690   -2.26346880103753
H         2.32607575532924    1.11039080242937   -3.03984791410207
H         3.42103083374829    1.51874281516583   -4.38353260388648
H         3.13137317364115    3.23778264095727   -2.17212816815655
H         4.73134055691770    3.07595829986653   -2.94982816438815
H         5.19634302670523    2.67109990626780   -0.63676010769331
H         5.75950297771253    0.05612652800561   -1.36726738973644
H         6.03855081696496    1.18968742629060   -2.69980572152954
H         0.24872682292864   -0.19207595231956   -0.84764786362699
