33
 energy: -44.340195328299 gnorm: 0.122684226011 xtb: 6.4.1 (79825abcba525fcdf90b791dcacef51065a7a4e7)
C        -0.07448841219384    1.89723850156381    0.70518258274912
C         1.20578916370116    1.30877540971366    0.17092213562473
N         2.22392997641663    2.11136473103902    0.24465068721886
C         3.36731629112322    1.36465693914910   -0.34916525097341
C         3.81264216494270    0.29667519172000    0.69056560467367
N         3.32094628676523   -0.96570127247304    0.00806888309986
C         2.25944200788751   -0.76776380040983   -0.71704624189680
C         2.24540785028510   -1.49974973865231   -2.06312358947299
C         3.62312956029489   -1.24434795559317   -2.80365391964527
N         4.28375128600295    0.09256678956278   -2.81028219020127
C         3.58313092433787    1.24972668711687   -3.38465865655581
C         4.01872384514691    2.48754041969033   -2.56693594694581
C         4.49686066531797    1.90555498515950   -1.23219326146872
C         5.19504190157690    0.61837964724973   -1.77283836284651
N         1.15434837678450    0.03597174107726   -0.39547821144201
H         0.32989448297338    2.83952456745232    1.05883829597854
H        -0.53715752664969    1.23422498537807    1.43879549571820
H        -0.80730521727171    2.07965615256680   -0.10105071151993
H         2.93749873231912    0.80061684931072   -1.14163678539274
H         3.39442231334655    0.49830335231455    1.68559780851452
H         4.90094363809512    0.20568883071066    0.77091644989803
H         1.32663210449270   -1.29782067216927   -2.62749233617391
H         2.13167736028798   -2.57722300587190   -1.90515175264159
H         3.51261575374358   -1.52395310290484   -3.86282358248986
H         4.46606392369274   -1.88363333593263   -2.51156402437480
H         2.49080871085579    1.16152377845953   -3.40282231240598
H         3.91637528030692    1.32594661758177   -4.42556000730841
H         3.39028189099937    3.37670253795048   -2.46211560765181
H         4.94451420063362    2.85736014535328   -3.02689628505100
H         5.21371987474843    2.60681120368715   -0.79635933158521
H         5.46759499064713   -0.23167930267263   -1.14206562583651
H         6.05076309735728    0.84874091420049   -2.41820079488297
H         0.37529745105660   -0.16565026936920   -1.02247057132149
