33
 energy: -44.344009667897 gnorm: 0.119639776116 xtb: 6.4.1 (79825abcba525fcdf90b791dcacef51065a7a4e7)
C        -0.04219522186412    1.80730956899347    0.69885197201854
C         1.28748699654579    1.38940076979507    0.12602464223830
N         2.28440486351760    2.22140650140373    0.11518640826772
C         3.41134263600981    1.38118188996092   -0.37629709729556
C         3.77494921581922    0.24835210866410    0.62591413351543
N         3.31714186896029   -1.00666532671668   -0.09276842913829
C         2.24746488609895   -0.79459290106322   -0.80169647426782
C         2.17170025702039   -1.52027402262048   -2.14912782502018
C         3.60233880417261   -1.20833267435829   -2.75550915792512
N         4.34135532175668    0.08518417846278   -2.82240306031109
C         3.54158157393648    1.21750343816748   -3.31026708533022
C         3.97187602784086    2.46657028923149   -2.50697812449929
C         4.58109167333486    1.89696657183656   -1.22118349846039
C         5.24617950844462    0.59675442489487   -1.77225615201310
N         1.24242526907033    0.09725540600215   -0.39533367689488
H        -0.04796608978002    2.88615944778089    0.58682272507487
H        -0.16353818548046    1.51563863998775    1.74385986383768
H        -0.87535206966587    1.39721313942699    0.10053819065685
H         2.86025721956598    0.94602283439674   -1.17494404965011
H         3.25257648844130    0.39921774335023    1.57986232173216
H         4.85413769637342    0.12952734732713    0.76862984917691
H         1.32875571755556   -1.06845278909600   -2.68647165413144
H         2.02419717880889   -2.59646519181084   -2.01167316787081
H         3.55974914930919   -1.43994238203271   -3.83104427549843
H         4.32565429407450   -1.83226817800449   -2.21508354134079
H         2.45525903458501    1.07273212310612   -3.32517014825468
H         3.91901374166377    1.34458166731317   -4.33092030281725
H         3.14285564541838    3.16482487919759   -2.35966347330286
H         4.78891915524594    2.94074720172400   -3.06645530091006
H         5.25149416827468    2.67662099562898   -0.84929896457104
H         5.43078142179342   -0.12671886249736   -0.97396535766879
H         6.24818195789567    0.86728758792388   -2.12527264865482
H         0.25847112066654   -0.14431266152305   -0.51437276081514
