33
 energy: -44.344965769227 gnorm: 0.136460178908 xtb: 6.4.1 (79825abcba525fcdf90b791dcacef51065a7a4e7)
C        -0.05175466019616    1.87451502280988    0.53640173206292
C         1.32112488720101    1.33275749903827    0.23220729598947
N         2.29005980531034    2.17559277767743    0.03987929664114
C         3.39701511750950    1.28259275305276   -0.40139507813283
C         3.83502762643045    0.24888547385499    0.67542185858495
N         3.36619195185284   -1.05544757648896    0.05892420269163
C         2.23071409534897   -0.91803413665994   -0.56040617426056
C         2.26635921666247   -1.45158876118852   -1.99636350841422
C         3.57450838964610   -1.17568197167118   -2.84745311274464
N         4.27136892347689    0.14124709752709   -2.90981698218048
C         3.49799937964452    1.30058711171126   -3.37632156752871
C         4.02383190560230    2.50385851108072   -2.56009086554643
C         4.51807004939117    1.91077523005967   -1.23614192607699
C         5.17672730825936    0.63686785801922   -1.85250638483771
N         1.25510335963822   -0.01934633638278   -0.10087088597763
H         0.04371441826183    2.90381559092087    0.86492404463187
H        -0.59744286577895    1.33282461434717    1.31140716523197
H        -0.68522548617667    1.84059170762830   -0.36796142427343
H         2.98918108349370    0.66588267344865   -1.16574811877040
H         3.29414669324382    0.41726670695737    1.61603146425681
H         4.90959528986252    0.20901581756324    0.88242335967766
H         1.39041381381133   -1.10895413269649   -2.56094960690145
H         2.22086221449885   -2.54414900625640   -2.05186573281327
H         3.28891593962001   -1.40903280222610   -3.88486193026376
H         4.43879860725135   -1.78809839164892   -2.56024379455219
H         2.42773038975158    1.10172029853933   -3.24883128771097
H         3.70063488602801    1.44878147315211   -4.44277090345104
H         3.27549868337154    3.25583666277703   -2.29351607191511
H         4.79441076541766    2.99817987493866   -3.16612100901182
H         5.20564650878994    2.59730177327865   -0.73462567424057
H         5.45156883709735   -0.09033193457644   -1.08413001441381
H         6.12098396643648    0.81690679410671   -2.37955770412908
H         0.36572013254697   -0.16617143382464   -0.57850157949934
