33
 energy: -44.342153519019 gnorm: 0.133805554426 xtb: 6.4.1 (79825abcba525fcdf90b791dcacef51065a7a4e7)
C        -0.04353529385682    1.91636064325030    0.44030025456839
C         1.31017317752429    1.30854577984812    0.17787276941291
N         2.33809424090512    2.10120824940972    0.14236578920214
C         3.49296132983868    1.29938700733031   -0.34843649345408
C         3.87523189660368    0.23868987931264    0.72335230538786
N         3.47483869608359   -1.02257683963093   -0.01830294295827
C         2.32563812480183   -0.90213389045741   -0.61545792876320
C         2.18853043803792   -1.60868018520771   -1.96820271176300
C         3.48337115302056   -1.22281600175456   -2.79659195074209
N         4.13138201977276    0.12007010203165   -2.77324934290197
C         3.53219202448222    1.33590157104718   -3.34115905526892
C         3.87735132513662    2.52269599064793   -2.41219267912290
C         4.59990373706847    1.93946834641904   -1.19292099332137
C         5.17283168000592    0.65643619889780   -1.87274200500769
N         1.31036551857910    0.04601639669902   -0.41331605321040
H         0.20044129079014    2.91607644511064    0.78314811937847
H        -0.64344962039282    1.24626073509095    1.05909461010168
H        -0.56249012418546    2.08225444718883   -0.52067525423180
H         3.04073461331724    0.82551192749797   -1.18618878345176
H         3.14207910535258    0.44115019238090    1.51527885616274
H         4.93737952198057    0.14748762513887    0.97367099582898
H         1.29974456688203   -1.15108316273884   -2.41997805550026
H         2.06261743228994   -2.68827768311707   -1.83609089689586
H         3.19524859455112   -1.40707930728381   -3.84314111224148
H         4.37851144432473   -1.80136519437210   -2.53478028899516
H         2.43944779823956    1.27453120088092   -3.39965030657900
H         3.98681015056933    1.38544886774983   -4.33675150694663
H         3.07206705786424    3.23495447546754   -2.21034875104354
H         4.62214017712883    3.14687867003361   -2.92317553142138
H         5.33324826486713    2.57803202577815   -0.69288013110918
H         5.34522452205505   -0.06345424124430   -1.06850440349187
H         6.04811725256655    0.82342652868902   -2.51133980038286
H         0.41016772044036   -0.33352025720727   -0.70706264078225
