33
 energy: -44.353298312114 gnorm: 0.123064928712 xtb: 6.4.1 (79825abcba525fcdf90b791dcacef51065a7a4e7)
C        -0.02417988760824    1.91550143778904    0.50165538059122
C         1.23356888569283    1.20262450234807    0.07655752433867
N         2.39505983323231    1.60852236583704    0.49174654674014
C         3.45215814576621    0.75630472069549   -0.11963746171093
C         3.37459513386190   -0.64293198532520    0.55568543591046
N         2.80697343438716   -1.47164529597443   -0.58106467060160
C         2.03701349709652   -0.73095850030506   -1.32289165908494
C         2.12568162606801   -0.92420130370361   -2.84036316292070
C         3.56499300938679   -0.51626650809668   -3.36353071762503
N         4.36980156280794    0.59030760989987   -2.77058641833935
C         3.88250184301101    1.97678556712399   -2.76683166589917
C         4.39935397352702    2.57747949611328   -1.43919273232793
C         4.77741876555292    1.42041414630731   -0.50799635266577
C         5.29303964447639    0.45904373075623   -1.62445349529422
N         1.06888898963415    0.16096164325222   -0.83520104669380
H        -0.20652102956878    2.69258667357256   -0.23277715728223
H         0.06046169887195    2.32387547241512    1.51056765813089
H        -0.82364097156575    1.15372576796687    0.53112737090173
H         3.11155737332859    0.47365355924033   -1.08658881736411
H         2.65837880047641   -0.62693440079433    1.38780867802136
H         4.30996499544453   -1.14062680412403    0.83230423298270
H         1.38068952393684   -0.27346724269038   -3.31467134683547
H         2.08182279883348   -1.96148012035879   -3.18816687463235
H         3.37774601972691   -0.29000896930446   -4.42465220255930
H         4.18626102547478   -1.41476192271548   -3.25735779834247
H         2.79929073218055    1.92202039506108   -2.92473022686866
H         4.22628098904282    2.59747910522684   -3.60163243778680
H         3.72825495421231    3.29385004723553   -0.95651767706079
H         5.35789473782888    3.06891272193019   -1.65158602741546
H         5.46296189048741    1.68200447009501    0.30268222261998
H         5.24200100854828   -0.56963821164139   -1.25843686857265
H         6.32669628049810    0.68234565018131   -1.91343092723322
H         0.27252176679291    0.26244862481117   -1.46463796523262
