33
 energy: -44.343743338431 gnorm: 0.125024379142 xtb: 6.4.1 (79825abcba525fcdf90b791dcacef51065a7a4e7)
C        -0.12907597319930    1.72766674806328    0.61115094639918
C         1.18175784779077    1.24712305684139    0.04403001711409
N         2.32989696956455    1.64504167501501    0.50188759514682
C         3.42813903720695    0.84610315408471   -0.10891823488222
C         3.32684651326633   -0.60364603890019    0.44597590038905
N         2.88007126959223   -1.44527820258607   -0.73436648286206
C         1.93193607496353   -0.80427073952059   -1.35235646351603
C         2.05221643876933   -0.90176122840918   -2.87680812516319
C         3.52495309713424   -0.45649088318356   -3.25695734684075
N         4.40950630168485    0.64764422995867   -2.78551559147959
C         4.07392609594650    2.07843750433831   -2.78909100769767
C         4.62279462952628    2.60489710657153   -1.44291936707889
C         4.79843352384933    1.41013118678220   -0.49923229679519
C         5.17942547715630    0.33414611150332   -1.56397441374026
N         1.11281528176478    0.25632631611092   -0.93426105728600
H        -0.91523852043356    0.98878864465739    0.49930952385351
H        -0.52272666046781    2.65741906523751    0.19589524617194
H         0.08955315215508    1.98662761598814    1.66255447014543
H         3.09894004519175    0.70335489188693   -1.10999088403430
H         2.58303194587212   -0.76366219983676    1.23767380274451
H         4.21572513380579   -1.10573394094380    0.84212916513638
H         1.26943278820817   -0.38973256890276   -3.44996841511153
H         2.12646160130084   -1.94094543096052   -3.21359029584146
H         3.39320616065217   -0.30462532900966   -4.33946015213411
H         4.06855071508581   -1.40125575750605   -3.12865450606409
H         2.98443776085768    2.15287589283389   -2.88264092762692
H         4.65418135228036    2.62177783780229   -3.54302868609129
H         3.99174621939475    3.40673038336338   -1.04874025600293
H         5.61183670216079    3.01361396277105   -1.68820335715953
H         5.49406979477495    1.62714129663326    0.31599492306277
H         5.02701417789498   -0.66633896231399   -1.15098522495230
H         6.24154082624639    0.40817148283409   -1.82521946868603
H         0.19493550566173    0.16126844811819   -1.36917705155837
