33
 energy: -44.339643358581 gnorm: 0.125029866285 xtb: 6.4.1 (79825abcba525fcdf90b791dcacef51065a7a4e7)
C         0.01825139674424    2.07151358051786    0.43468594691675
C         1.25431751563130    1.27692566039699    0.10061367487333
N         2.28701043317088    2.06274467054004    0.05339020586826
C         3.51119424413097    1.31516210152112   -0.34663036706257
C         3.82437389627374    0.22575015034714    0.71875242896542
N         3.41557255336737   -1.08234955538662    0.06843129780333
C         2.34945758086449   -0.83886532711565   -0.63575391638929
C         2.30311824803019   -1.52711693274624   -2.00399622132575
C         3.59418775699807   -1.17947788468824   -2.85488927116103
N         4.20069930153241    0.18266629704509   -2.83223924519564
C         3.33050311474330    1.31858268102012   -3.16727479637035
C         3.89928465619891    2.55291366429186   -2.43004413526154
C         4.60854990046503    1.92537494245692   -1.22505538930730
C         5.22696152318112    0.64899209495961   -1.87696674281902
N         1.23147003238474   -0.02141527536549   -0.40660765926746
H         0.44496040303979    2.95929998237568    0.88883971299490
H        -0.55581528248777    1.56925536133655    1.21572478542761
H        -0.64508161173784    2.07940728890771   -0.44862362639268
H         3.05615113561012    0.73691337175772   -1.11439313451766
H         3.14882119312328    0.40359997006045    1.56589399845155
H         4.84998496584748    0.17550763665384    1.09918966629435
H         1.42222057555008   -1.24840517843055   -2.59541431048948
H         2.41391629632291   -2.61148807169700   -1.90054864387822
H         3.25681491701511   -1.30399083884394   -3.89551831826397
H         4.36036577712380   -1.93740211341158   -2.64737359436409
H         2.29678495695677    0.99890732374298   -2.99259815200943
H         3.32121536321318    1.36804235676464   -4.26171729508134
H         3.15145046955969    3.28454362500031   -2.11067365865717
H         4.63221639857421    2.98830327979038   -3.12190023985632
H         5.30283189896134    2.48133687061243   -0.58906995680633
H         5.39895897926184   -0.16906155811991   -1.17271909361650
H         6.13499158304609    0.76127142955155   -2.48086450661368
H         0.42026725165979   -0.43640271341034   -0.86533052514295
