33
 energy: -44.345694811290 gnorm: 0.129105170827 xtb: 6.4.1 (79825abcba525fcdf90b791dcacef51065a7a4e7)
C        -0.10890953758208    1.84563929661122    0.56721365900674
C         1.24729287038797    1.30718453682298    0.19089573423639
N         2.27981913752217    2.09317205535581    0.23895129941321
C         3.43753415570259    1.38095529333049   -0.36929648482592
C         3.83402632605490    0.27114680773396    0.64611450552302
N         3.48182949174034   -0.99997111704926   -0.10313682857961
C         2.31821867511940   -0.84083509948331   -0.66210740545478
C         2.23066815557879   -1.49056287568899   -2.04706708997609
C         3.56762541876186   -1.17924848051292   -2.83912831231910
N         4.24273032343279    0.15029831841067   -2.85769482275069
C         3.50814794119767    1.33364441016531   -3.32660526010345
C         4.00051314274293    2.53033405691767   -2.48037546904239
C         4.60240058853686    1.89211344850047   -1.22368701876371
C         5.19351733490601    0.57072341751942   -1.80771089984489
N         1.26053651360249    0.04343982320149   -0.39754165517191
H        -0.62545145302948    2.30292525426591   -0.26978986818766
H         0.11099359746630    2.65298467545390    1.26840806240866
H        -0.68119092315978    1.05734339007668    1.08816698293301
H         3.00477372722143    0.84609531219135   -1.18018408442824
H         3.14743496870047    0.21854006892611    1.50137802626144
H         4.88351711726308    0.11304704392748    0.91575948259925
H         1.43597082682060   -0.91438840396462   -2.53687873801352
H         2.01421367527603   -2.56121588034098   -1.97164847792309
H         3.27671632669009   -1.14961635336795   -3.90060207975418
H         4.33379190021837   -1.95017800997980   -2.68682194304166
H         2.42926211810725    1.24269637360628   -3.15627814202370
H         3.71769914853959    1.44860137773388   -4.39581529040855
H         3.15866814661956    3.18187279417261   -2.22872065534918
H         4.76610396834413    2.96130077063381   -3.13882539301778
H         5.39165466587260    2.51842242601496   -0.79893569537846
H         5.33020291123986   -0.21077798350068   -1.05582509424780
H         6.16257221991795    0.78669507903717   -2.27258358763775
H         0.36606679191466   -0.44704625917989   -0.40374751873419
