33
 energy: -44.345736144499 gnorm: 0.135898081444 xtb: 6.4.1 (79825abcba525fcdf90b791dcacef51065a7a4e7)
C        -0.01969413825470    1.97631074982113    0.45357161639724
C         1.30724313054809    1.36209355915483    0.08914268355573
N         2.36095480569496    2.11678019158698    0.16874195707689
C         3.43788463561636    1.25583720591673   -0.39386048362518
C         3.84484081354896    0.19098242289984    0.66463438190875
N         3.32425385437774   -1.11745881710864    0.10060273218778
C         2.26843040450281   -0.90149193193611   -0.62765387892556
C         2.36120325951319   -1.57941700183739   -1.99868831308275
C         3.68364917208016   -1.19142170248517   -2.78120274158402
N         4.19112026631429    0.20340106235670   -2.92524649837098
C         3.34938905931991    1.35499987502433   -3.27894836535376
C         3.91025584042674    2.54606387074429   -2.46815277870356
C         4.54816068022785    1.88869547072244   -1.23941190999204
C         5.17265822310060    0.62127455802109   -1.90290387233124
N         1.26453809384964    0.03946822220830   -0.34940401287255
H         0.14669546439634    2.76486526411145    1.17951733835023
H        -0.81076242134823    1.32087792644301    0.82297156603096
H        -0.38093156961271    2.56651889453184   -0.40751529150893
H         2.89939093280448    0.70135786851715   -1.12425263387189
H         3.28463850775011    0.40489951815424    1.58445159742494
H         4.92221937285666    0.07695124093901    0.82396801930917
H         1.50392686915373   -1.20911517607303   -2.57435320334385
H         2.44265849175612   -2.66860960889575   -1.92211880812059
H         3.45857592351714   -1.60873507149379   -3.77489500270540
H         4.53277779242259   -1.70520990321312   -2.31264866051280
H         2.31946032397014    1.11843389686391   -2.98815490767118
H         3.49175845837107    1.47116345186394   -4.35902886448825
H         3.07726172972732    3.16046626897944   -2.11436416972901
H         4.51398871133479    3.15202704467293   -3.15643555438719
H         5.37669563910669    2.47870795896611   -0.83814675592546
H         5.38517483654029   -0.17977517542644   -1.19022184383732
H         6.11343938551934    0.89849221088849   -2.39269865646679
H         0.28136216637293   -0.19755646815936   -0.48310367388005
