33
 energy: -44.337751495358 gnorm: 0.135193935597 xtb: 6.4.1 (79825abcba525fcdf90b791dcacef51065a7a4e7)
C        -0.08063884491655    1.92388341627733    0.56186599110863
C         1.25084165469841    1.33527402224593    0.17259438629491
N         2.28702000525188    2.11600431760959    0.11790540278651
C         3.41599285177911    1.28044000922886   -0.37684178318291
C         3.82434799821267    0.18410846295757    0.64845994348790
N         3.40606101986065   -1.07357921353014   -0.08938738377258
C         2.22103068281541   -0.91246498550765   -0.60076577738403
C         2.29037204977223   -1.47852866873994   -2.02297825058612
C         3.65476644988700   -1.19825489004944   -2.77902514202124
N         4.23646439698447    0.16729996786369   -2.92287742949029
C         3.49849874167014    1.35725882653404   -3.36919666615814
C         3.92804817416076    2.51480817493650   -2.43851881667071
C         4.56404527968999    1.87436276264383   -1.19989164361266
C         5.20873759429767    0.64845876678320   -1.91968726902883
N         1.21956458205197    0.01059293790021   -0.26067975822294
H         0.09465731862099    2.99428615590602    0.56505172652496
H        -0.45300292810534    1.87163266271350    1.58678178422995
H        -0.79374110144164    1.68634308794575   -0.24768237919454
H         2.96886570453798    0.82148483041562   -1.22556609280244
H         3.21508781937119    0.24747314052753    1.55974354915970
H         4.87976718665272    0.17232999752276    0.94015581522494
H         1.45312358001900   -1.01267135249754   -2.55723313577216
H         2.12544977056387   -2.55983861634398   -1.97390870136298
H         3.68912869548077   -1.72744212296932   -3.74391520138334
H         4.30375184384084   -1.81337220528341   -2.14263744233346
H         2.40947045747329    1.24106672602686   -3.32683765540462
H         3.81876791339534    1.59778010269705   -4.38895844143756
H         3.10313457305266    3.22081272420660   -2.30581237348797
H         4.72658978282418    3.01959059926170   -2.99793273393874
H         5.39655153650307    2.36085879605147   -0.68428173514780
H         5.57047847579271   -0.16108112877661   -1.28050939907306
H         6.03649822543905    0.92849764458871   -2.58166031706730
H         0.24905898095783   -0.28167098165627   -0.37640310048516
