33
 energy: -44.343505915631 gnorm: 0.117129212134 xtb: 6.4.1 (79825abcba525fcdf90b791dcacef51065a7a4e7)
C        -0.05496126314951    1.87970685977404    0.49108113586603
C         1.32537203571756    1.40539393842558    0.11619320724931
N         2.37512018468138    2.16854270363412    0.07342602064254
C         3.53013150973252    1.31283327043046   -0.31546004820991
C         3.84130216905507    0.17410205281938    0.69765615224085
N         3.38010273144617   -1.11863921172125    0.05168706489775
C         2.33401720205951   -0.80299647107838   -0.65388877781437
C         2.23442388095184   -1.43867667850695   -2.04454203574617
C         3.62261935023404   -1.26459871433132   -2.78908390263454
N         4.16098659083001    0.12577475134328   -2.81786593611431
C         3.46365835417319    1.31066495561032   -3.33706223193584
C         3.81681675016861    2.48639422855382   -2.39709718313589
C         4.61518078804228    1.86793222690113   -1.24428343720523
C         5.20196798495063    0.56084035901384   -1.86377206525921
N         1.29662304403761    0.09908425059406   -0.36982449904155
H         0.09028187059672    2.83617953126737    0.98155577863670
H        -0.61040693176130    1.23089610254107    1.17105337718637
H        -0.73800405023534    1.92100336844798   -0.37613045639279
H         3.12858657393595    0.78996786274284   -1.14988735293027
H         3.32227664213288    0.49644328710444    1.60999352685869
H         4.88378952034328    0.13127585740462    1.03010300972251
H         1.50745223110864   -0.85920061004438   -2.62691307678749
H         2.10776914699596   -2.52249235350849   -1.95431707549607
H         3.44119733339428   -1.61710463869830   -3.81624423541897
H         4.42293251543618   -1.81114072146386   -2.27398067853183
H         2.37772697077070    1.16795555058588   -3.37786115059817
H         3.75370935770512    1.51707755581503   -4.37320949898208
H         2.91037000655912    2.90266563308837   -1.94808906154033
H         4.27950559134227    3.26662614132869   -3.01562375824125
H         5.34884724889869    2.60809181968667   -0.91338174129091
H         5.42252573005069   -0.18703245253519   -1.09774321715143
H         6.06120112287032    0.75377452059962   -2.51669822848663
H         0.39686822795157   -0.09620239745041   -0.80913715291747
