33
 energy: -44.340093875670 gnorm: 0.127198858655 xtb: 6.4.1 (79825abcba525fcdf90b791dcacef51065a7a4e7)
C        -0.00848307102265    2.04675946395745    0.54068119601188
C         1.21147293215901    1.28675471964848    0.08798501291111
N         2.29986877590410    1.99498529170073    0.08841292912753
C         3.47426055088083    1.20084596105550   -0.36729404579214
C         3.83148469433363    0.15659471257670    0.72900456481808
N         3.29504380610593   -1.11640868829908    0.10222352741276
C         2.25944002675849   -0.87996709412127   -0.64836471671277
C         2.31274849486352   -1.51224133024903   -2.04310917698819
C         3.70636691995991   -1.15469574251561   -2.70773027303600
N         4.23267966612030    0.22578000833983   -2.91043114497353
C         3.37997608834875    1.35742360748125   -3.30039989527703
C         3.84647337357347    2.53323536053995   -2.41133214139830
C         4.55737113846172    1.83123656527524   -1.24914369990771
C         5.30389302806474    0.68611894927875   -2.00279165273791
N         1.18259272662797   -0.00479573420110   -0.43598831423056
H         0.38328248707781    3.05239332780872    0.64894566600011
H        -0.59860267646546    1.78722862081915    1.42172609750071
H        -0.72165477286206    2.12908444642835   -0.29891246334777
H         3.04097971542175    0.68155130177652   -1.18796222833964
H         3.33648926029447    0.39073752107387    1.68074377053433
H         4.88953950281640   -0.12281355638056    0.76882813741013
H         1.40855476310633   -1.26895170244215   -2.61466858985176
H         2.24346457045656   -2.60201862864024   -1.96296211647599
H         3.80743618629904   -1.66749145039128   -3.67678046872129
H         4.49780253087074   -1.58589228536383   -2.08143970902896
H         2.35098558981344    1.04686961814181   -3.08589518953868
H         3.40056869637755    1.52039626829080   -4.38361398272633
H         3.11134465256854    3.29421999803386   -2.13380013227595
H         4.62694932721767    3.04459372459333   -2.98994067575163
H         5.21796921386969    2.52405468466400   -0.72073867733771
H         5.62613151603184   -0.15911646520439   -1.38919642263414
H         6.15361170740116    1.18306966836474   -2.48532237406304
H         0.20810573520677   -0.28720150789095   -0.54235220955068
