33
 energy: -44.348478139963 gnorm: 0.118306053630 xtb: 6.4.1 (79825abcba525fcdf90b791dcacef51065a7a4e7)
C        -0.04326547050461    1.89070252739350    0.62147837737014
C         1.21526950412648    1.24247033457562    0.10503048885883
N         2.32186978423178    1.86684628594679    0.37296092842852
C         3.44727730979972    1.05029922651216   -0.16017223178641
C         3.54782701023388   -0.25519589945269    0.67977576335838
N         3.15305369317482   -1.28766251952988   -0.35913118986688
C         2.15242810344880   -0.85834660618106   -1.07060767747138
C         2.12170165060495   -1.15397724666307   -2.57379862415933
C         3.57843083713795   -0.88536595272225   -3.13728813077589
N         4.31467493850898    0.37589249690307   -2.83566286129628
C         3.68265787426590    1.68985642368108   -3.01964516593573
C         4.26456015166504    2.61402175512097   -1.92515777514687
C         4.69604719721725    1.65939202140009   -0.80651533286617
C         5.23602452784913    0.48828640486349   -1.68600986957038
N         1.20746548046321    0.11878133568365   -0.72004332150429
H        -0.01124356537324    2.92420807174082    0.29384779968261
H         0.06497826042193    1.83938713076752    1.70659936858379
H        -0.95745636125004    1.35277879836096    0.31293038617022
H         3.00071365809339    0.70247174268296   -1.06044576710526
H         2.85608684728788   -0.24578005592423    1.53245257049573
H         4.54110622859231   -0.54426358911507    1.03890128076264
H         1.38308842260782   -0.57158493456923   -3.13833914823468
H         1.96226309331145   -2.22688540090089   -2.72308297417355
H         3.50957808388300   -0.88684891140520   -4.23614654824519
H         4.23312517479894   -1.67685263995411   -2.75068134790215
H         2.62538161297456    1.58583188375948   -2.75015806237061
H         3.83742287195370    1.96198034861236   -4.06956576781726
H         3.45639950686269    3.33020229410432   -1.75052192615974
H         5.16345575458527    3.08834038323500   -2.34040042764730
H         5.40181320769905    2.17767820682407   -0.15163183383347
H         5.35591102566800   -0.54014450141401   -1.33570035700330
H         6.14083298862993    0.92322058677022   -2.12643200613684
H         0.39351910569995    0.06693294119798   -1.33281917055894
