33
 energy: -44.349660704750 gnorm: 0.114739725246 xtb: 6.4.1 (79825abcba525fcdf90b791dcacef51065a7a4e7)
C        -0.09788819284715    1.79207089623733    0.47706418509534
C         1.22023433519293    1.16120310972513    0.10910694562758
N         2.35497815960530    1.60017927044335    0.56281676416004
C         3.47417724974209    0.82670878406907   -0.04270694005462
C         3.36804869014838   -0.63845021057646    0.46913897756182
N         2.88634896848858   -1.39177876577684   -0.75626806159559
C         1.91928912221137   -0.80603867707766   -1.39928153064720
C         2.02929657519435   -0.84978657468970   -2.92699520714514
C         3.51148897378799   -0.45356007073934   -3.32428932309442
N         4.40247773337010    0.57464874000855   -2.71377174449330
C         4.08165484094444    2.00731675158521   -2.77958428417936
C         4.46495532841095    2.57092772171356   -1.39177382414023
C         4.82884180205745    1.39325088771951   -0.48099184216455
C         5.25719175354952    0.32431776693037   -1.53478158526830
N         1.06396271444465    0.16285160650593   -0.85128783316931
H        -0.60131129296715    1.18238693402739    1.21959469510230
H        -0.76822795319513    1.84795114898450   -0.38279599914650
H        -0.05785384348844    2.80859806950877    0.90762026917123
H         3.16746932137024    0.75270164151482   -1.05826032630836
H         2.67945906054484   -0.71312850110307    1.32114738139268
H         4.33892378111244   -1.04911934668753    0.76559688150155
H         1.38427775249389   -0.08321525038929   -3.37393528255319
H         2.04913893078897   -1.85705019640050   -3.35578961603629
H         3.50044919484058   -0.09157306689865   -4.36403749121820
H         4.14451235762056   -1.34753613678193   -3.25625372378973
H         3.00000298806548    2.09668271085148   -2.93229475236411
H         4.64275170513359    2.40988121567522   -3.63014237391796
H         3.71782321700372    3.19377573543058   -0.89138414517269
H         5.29939772362127    3.27618046378798   -1.50013609985405
H         5.52761184721735    1.63786743210024    0.32367069299194
H         4.95154396742170   -0.66656585044926   -1.18911014596974
H         6.31508720479693    0.40556287194812   -1.81059709032954
H         0.20352157301710    0.36829716041698   -1.35934724338946
