33
 energy: -44.345826517302 gnorm: 0.127557395285 xtb: 6.4.1 (79825abcba525fcdf90b791dcacef51065a7a4e7)
C        -0.03179831785693    1.81569560519605    0.56280283133467
C         1.32543178974987    1.36508297385782    0.08771503658672
N         2.29148067266765    2.22757358382969   -0.00744666621627
C         3.43812788461044    1.36872707623441   -0.41377785163253
C         3.77946781398556    0.34221346924659    0.70412075119329
N         3.39541887231384   -0.95955433104726    0.02657520513285
C         2.34697459051907   -0.80694376160173   -0.72790285643535
C         2.27658284390367   -1.51422584646848   -2.08537170159591
C         3.60843888694729   -1.20505533067773   -2.88681131134133
N         4.14352112870033    0.18581240393132   -2.83222196522871
C         3.35271100381059    1.37037079954821   -3.19448845724864
C         4.04867413004593    2.52967888871689   -2.44466544328648
C         4.65468297423732    1.84266534471831   -1.21599722371780
C         5.19337545127154    0.52093382646933   -1.84798673331431
N         1.29672490199136    0.03558152973265   -0.33071838883308
H        -0.24972984730590    2.87679494137489    0.50735056225332
H        -0.17654895994099    1.56440741997954    1.61529465657535
H        -0.83998079079471    1.36730696479171   -0.04225709537157
H         2.98859349665745    0.81793106440206   -1.20462428619221
H         3.21185074484178    0.42219161404606    1.64063835096414
H         4.84767399047084    0.21569134843672    0.90921242946792
H         1.35541781910178   -1.26842174996440   -2.62802412442792
H         2.27160946134231   -2.60827635376784   -2.04216147643983
H         3.41424305535236   -1.53748532265222   -3.91832039995729
H         4.30065403211158   -1.94345830254892   -2.46238240053843
H         2.31336176032121    1.13063696900645   -2.94238066989377
H         3.44135222133433    1.58279114477152   -4.26563608327749
H         3.24598197806631    3.20573955447704   -2.13618017462257
H         4.82876310276488    3.07058618666367   -2.99629794515376
H         5.47926069237267    2.41956412310353   -0.78837820828816
H         5.24509523533844   -0.29213285728911   -1.11928426264824
H         6.15272728699986    0.69729992875777   -2.34834340922375
H         0.38976418628848   -0.35702997857051   -0.58364065122038
