33
 energy: -44.340819043842 gnorm: 0.117433451914 xtb: 6.4.1 (79825abcba525fcdf90b791dcacef51065a7a4e7)
C        -0.06919494508811    1.64442270472591    0.64020131839759
C         1.25391676532490    1.13976952850589    0.12490112696664
N         2.36747280882857    1.56059467308261    0.64364515409551
C         3.46170853528852    0.82524117165719   -0.04876048567860
C         3.27706414621698   -0.64681919510520    0.41909111760364
N         2.75413272078787   -1.41545916630328   -0.77961496234386
C         1.90108041490526   -0.70091658346585   -1.45303399312884
C         2.08150944858055   -0.88606441663433   -2.96336185643818
C         3.57489167515259   -0.53483428946165   -3.36107944740677
N         4.27654945604255    0.49889021119706   -2.54689515956732
C         4.19103909810131    1.94191631828185   -2.81177226468384
C         4.43542935425172    2.63864524065259   -1.45330376111754
C         4.76958574230591    1.47057024807409   -0.51906598132732
C         5.31978969313865    0.39349366434888   -1.50585682236220
N         1.05190471822489    0.31073226083676   -0.97753845520518
H        -0.45079869695295    0.96995509668390    1.39913012506388
H        -0.80909717442116    1.77427051851725   -0.15196140145184
H         0.08084527006868    2.64080251678810    1.09299707849681
H         3.07482395602607    0.89492350349806   -1.03686988787004
H         2.58553828748148   -0.70033990521396    1.27031280905879
H         4.22931785715759   -1.09036844536072    0.72830270247551
H         1.40191715233881   -0.26318259217362   -3.55801204963927
H         1.72177348721596   -1.90654087697157   -3.13086172947905
H         3.69158222439834   -0.23283612495362   -4.41341643578394
H         4.11182899403455   -1.48550685289022   -3.24945219809806
H         3.19970411917012    2.24444006936612   -3.16815945808363
H         4.96558835219681    2.22667330373161   -3.53241351671069
H         3.52689531629841    3.16702272163439   -1.15012227986309
H         5.24642582855280    3.37805269472202   -1.48459687859187
H         5.34030951035656    1.89402897778897    0.31193083791288
H         5.40001571067005   -0.58166635400930   -1.01863369411716
H         6.31395840691494    0.67757907091866   -1.87019429566373
H         0.34739551056108    0.66109706944618   -1.62684768417387
