33
 energy: -44.339821369081 gnorm: 0.126737615289 xtb: 6.4.1 (79825abcba525fcdf90b791dcacef51065a7a4e7)
C         0.01370306259541    1.98375420727428    0.49494732146007
C         1.18910996266109    1.15428462306160    0.04635784577347
N         2.36617751685180    1.49454558823683    0.47639351266256
C         3.42318183524277    0.66605851254002   -0.16693626267946
C         3.33064438497224   -0.75395634654345    0.46150229220508
N         2.77799171587695   -1.52042306442502   -0.72520101963949
C         1.93398143459013   -0.75409861180413   -1.35142461503293
C         2.17187469730910   -0.71994937948612   -2.86475379898397
C         3.69428124414501   -0.54300939924682   -3.26811827094599
N         4.55803085602173    0.55596704994290   -2.74850936750030
C         3.93205903533908    1.88549807871782   -2.76590980881201
C         4.26237973812305    2.57194497806686   -1.42044581711877
C         4.71200269140849    1.41588473005059   -0.52032148396731
C         5.40912089601174    0.46583385834590   -1.54404218304437
N         0.94896406812381    0.10557907393592   -0.84022621613591
H        -0.74671073484938    1.45490453806327    1.05938490393563
H        -0.36665280843153    2.63057788270290   -0.29801300287971
H         0.49727417662596    2.62861767915824    1.25034051776490
H         3.08224506295875    0.56832160022915   -1.16948556389156
H         2.69084876715304   -0.67976295753046    1.35077601639184
H         4.25104117341181   -1.21795744572804    0.83124220198724
H         1.49767265373275    0.03026210528598   -3.29611285752979
H         1.81929011794069   -1.64976311347457   -3.32297743727685
H         3.58309834382481   -0.26720948142039   -4.32821519530256
H         4.29414526963852   -1.41780363976871   -2.98626931260416
H         2.86797297646592    1.99050058597705   -3.00668527194408
H         4.47706681823800    2.48819095480382   -3.50080076549317
H         3.39403663727855    3.15061425460568   -1.09233303324824
H         5.07871661084088    3.28923519577346   -1.57699222770569
H         5.25845796086385    1.79583407216260    0.34721742878144
H         5.48710369552861   -0.60541489027859   -1.34129984677864
H         6.42804633724048    0.85394744678115   -1.65795676964488
H         0.05394539788052    0.08196139059996   -1.32917915025852
