33
 energy: -44.343482798913 gnorm: 0.123638194088 xtb: 6.4.1 (79825abcba525fcdf90b791dcacef51065a7a4e7)
C        -0.09414671757183    1.80711187264399    0.56812212382448
C         1.18530785053717    1.23186350291725    0.01774133767518
N         2.37764238683581    1.57003135663022    0.40526821425692
C         3.47888857151135    0.75516556796705   -0.17848922090294
C         3.35459242690110   -0.68785917822051    0.38911138232943
N         2.75986793891455   -1.48154469254126   -0.75872442284182
C         1.85571711646142   -0.80753036012900   -1.40678190076787
C         2.02123964939573   -0.85920017637764   -2.92923292908553
C         3.53793357457785   -0.50781064614053   -3.22570771863937
N         4.44124593828743    0.55832371774262   -2.70494833894077
C         4.04654145290429    1.97331083505970   -2.66233288682189
C         4.47386092041054    2.64550803935771   -1.33713725780305
C         4.81971575643862    1.44665689566190   -0.44719328237575
C         5.34464773523350    0.46297608737355   -1.53961857008031
N         1.02615095648893    0.21738388162172   -0.92511860247163
H        -0.43238436180753    1.13190693949692    1.34670705957266
H        -0.90530686520325    1.86776884976092   -0.16001074772029
H         0.02163224317472    2.86066126659440    0.87947031513622
H         3.21480263937470    0.69688869646580   -1.20696280543621
H         2.77571604808908   -0.65993105630846    1.32172759722231
H         4.28084567139763   -1.19889217507992    0.67201608977098
H         1.30438194417243   -0.24216396339605   -3.48494656641787
H         2.03355685336670   -1.90314315366715   -3.25918705210619
H         3.55116714668977   -0.29836962943902   -4.30653705557270
H         4.10836691177502   -1.41350828064314   -2.98310050716646
H         2.95282158069930    1.94981572144174   -2.72943217502800
H         4.41632035136326    2.58278350117776   -3.49428453042637
H         3.78356007187413    3.39659887415668   -0.94231683489380
H         5.45371465168181    3.12115504190907   -1.47521158647644
H         5.46047764403238    1.54332122210798    0.43353303177823
H         5.38958021758282   -0.57566234076165   -1.20202274366768
H         6.33193188649126    0.76420836564237   -1.90887033774761
H         0.21264149298211    0.43731806404872   -1.50002947453339
