33
 energy: -44.345641474352 gnorm: 0.117720329591 xtb: 6.4.1 (79825abcba525fcdf90b791dcacef51065a7a4e7)
C        -0.03884092810665    1.93485692179197    0.64806851288315
C         1.20186828445889    1.29604906260213    0.07938680616673
N         2.23314111715578    2.08446095864834    0.11223903798540
C         3.42447736661181    1.34301308921986   -0.38625385329576
C         3.86282229804229    0.32955431574716    0.70950863945586
N         3.31853531611386   -0.93384853280065    0.07019191675434
C         2.20871906989035   -0.86748540222327   -0.60483872337040
C         2.27940363217581   -1.62222149176871   -1.93649248333668
C         3.58501813901353   -1.21978467228165   -2.73970336843053
N         4.20838052441523    0.13138530298280   -2.83750458357195
C         3.47243759910332    1.29342597274274   -3.35504273926732
C         4.00739103668989    2.48524133753214   -2.52800258242099
C         4.57548186269511    1.90128298996466   -1.22987879276538
C         5.23862525264738    0.67193368265588   -1.92666832079744
N         1.11654339465150   -0.00869419178206   -0.40419297429190
H         0.30289042296631    2.64883276973796    1.38966077707900
H        -0.74232099218215    1.21603617246206    1.07262718781273
H        -0.55234657067034    2.54998032480448   -0.11235502080155
H         3.08955574367683    0.74646589464046   -1.20041258599690
H         3.42686930345358    0.53854968678086    1.69536703181881
H         4.92633935065596    0.07347916761290    0.75942728955427
H         1.44395152332664   -1.49127382407738   -2.63528343004193
H         2.33121885375462   -2.69725199096345   -1.73533836399964
H         3.51242671870964   -1.34262513543870   -3.83143292537174
H         4.42586311065433   -1.84674159172151   -2.41652322396040
H         2.38318588276537    1.18159464648265   -3.30706415399644
H         3.71274424582907    1.53848596076102   -4.39549226708862
H         3.20311538604235    3.21528679603770   -2.39873472967580
H         4.85172019526666    2.99407770987902   -3.01133657035588
H         5.35188533720767    2.51776168721183   -0.76863017347776
H         5.63662560386647   -0.19169256338263   -1.38768308763046
H         6.06390639486982    1.04489338831654   -2.54443028386120
H         0.25605382318213   -0.32492124234384   -0.85168526438802
