33
 energy: -44.344281189892 gnorm: 0.124365265427 xtb: 6.4.1 (79825abcba525fcdf90b791dcacef51065a7a4e7)
C        -0.06987850313849    1.82173682314821    0.53328251246952
C         1.27922756585101    1.36459364517466    0.04158479421632
N         2.34356203316175    2.10363380299628    0.12648491095583
C         3.48920488553534    1.29454852467445   -0.37392056762795
C         3.76727916382086    0.23389419860250    0.72954103502638
N         3.40923728943378   -1.04040572634437   -0.01148978709554
C         2.33214617775531   -0.81528393477106   -0.70500074988272
C         2.19559292944367   -1.54589654471824   -2.04495711111915
C         3.46881422008915   -1.09071231537376   -2.87166578941331
N         4.22671944900513    0.19227309294141   -2.92940792538316
C         3.46923808546260    1.41914891938527   -3.21365068391004
C         4.09036820959693    2.54649834190442   -2.35698557094919
C         4.69949033504793    1.82502985303320   -1.14979321984348
C         5.23153006736131    0.57295581167443   -1.91518125401850
N         1.26364441885244    0.05155980425669   -0.42658612447542
H        -0.67973193208697    0.95642920510058    0.76955022648064
H        -0.65832125608691    2.41968945635626   -0.16530557208612
H         0.04571424164499    2.50644308921449    1.39242420268767
H         3.02569702628148    0.72360130305239   -1.14208411019673
H         3.13138499034065    0.26179548417376    1.62425382267065
H         4.78042835939860    0.13284957735107    1.13259632569228
H         1.27130080678162   -1.16292075713499   -2.49490148082405
H         2.20923196867765   -2.63241791596219   -2.17958122740721
H         3.21063004878848   -1.36426506576276   -3.90643269483835
H         4.14101643351318   -1.91129101931251   -2.59000032477902
H         2.38372142881757    1.38869957512158   -3.06531350513763
H         3.47780365967586    1.68374832045240   -4.27678317437295
H         3.27700464893212    3.22752711845919   -2.09019839573077
H         4.90518634348083    3.13374471198375   -2.80041655220189
H         5.37243704746134    2.34026714027163   -0.45894454283903
H         5.48618439600354   -0.26321005380246   -1.25887532415396
H         6.14024244232524    0.83455307753720   -2.46982207402428
H         0.41297691571382   -0.26467199607388   -0.89247608666625
