33
 energy: -44.343579206865 gnorm: 0.124925387105 xtb: 6.4.1 (79825abcba525fcdf90b791dcacef51065a7a4e7)
C        -0.05478662715417    2.00162734402358    0.46312320117017
C         1.24140072582146    1.31228532907180    0.12321196044938
N         2.32956970290812    2.01692753239229    0.04862043603378
C         3.50042605539120    1.21245004291573   -0.39795939684913
C         3.88637197389962    0.19161222108425    0.71058753639627
N         3.36803941898880   -1.09246903393439    0.09121070895468
C         2.28582465381438   -0.86755739537978   -0.59434636326215
C         2.29453333070134   -1.53475090570346   -1.97373086430065
C         3.57117216655550   -1.14831331527202   -2.82964653683473
N         4.19954280731362    0.20390618307385   -2.85106657459466
C         3.40155528516416    1.36045504142503   -3.28165560014626
C         3.90944928364575    2.54939524541604   -2.43368192964844
C         4.59539942890266    1.87567654088148   -1.24018478880640
C         5.25675560200800    0.63124926979716   -1.91143981427880
N         1.20990153037631   -0.01869722424610   -0.29028284926831
H         0.16409342617692    3.06037547633438    0.55055792113241
H        -0.59492353141021    1.55443943850830    1.29985054030814
H        -0.65772052805554    2.09374103926439   -0.45790588489483
H         3.10980757532756    0.61559997261947   -1.18668158509945
H         3.29100998933314    0.44291927826154    1.59830355287324
H         4.95369929223213    0.13579664612893    0.94898194193523
H         1.38547929042091   -1.29802540338360   -2.54031545792369
H         2.20917162617458   -2.62581810544921   -1.94020296249938
H         3.35950324847520   -1.41845930263599   -3.87580624436714
H         4.41975135957251   -1.77782667025611   -2.53271734850229
H         2.32015493780297    1.18610581666639   -3.31977554003580
H         3.60085885855892    1.54669645750746   -4.34275367589156
H         3.20177870300027    3.30542403998107   -2.08132034749544
H         4.81159757603152    3.01571621212359   -2.85092423650148
H         5.11209572050166    2.60902223933297   -0.61502267663937
H         5.53267133611293   -0.21632071206009   -1.27878248949498
H         6.10746184064433    0.99296782183902   -2.50074137988589
H         0.27793699424200   -0.39330942247087   -0.46860561818488
