33
 energy: -44.339031172846 gnorm: 0.142814099623 xtb: 6.4.1 (79825abcba525fcdf90b791dcacef51065a7a4e7)
C        -0.12094718618231    1.72713299094767    0.48547093993784
C         1.20449422206150    1.11632796837507    0.11002989045492
N         2.31612852898624    1.65865300371378    0.50543972230629
C         3.36675339250803    0.82701709494020   -0.14424580187524
C         3.30096363953739   -0.59555520631180    0.48177349885757
N         3.03118592682266   -1.39201549135495   -0.78077628735820
C         2.06908340136180   -0.72973085803905   -1.35305271158080
C         2.05561757726290   -0.68859889251552   -2.88473525849487
C         3.54674504876553   -0.38411431442442   -3.32695732922583
N         4.48701302840457    0.58895766298434   -2.70019334590158
C         4.04402863298424    1.98848604519312   -2.77006025429877
C         4.58332977824278    2.55482961307197   -1.43626727797639
C         4.75856522555837    1.38171980972915   -0.46571803132424
C         5.25271317537297    0.29480806238638   -1.47121053769138
N         1.05493575467717    0.05288805243708   -0.77890906879503
H        -0.61292264667762    1.14666109667908    1.25846086875996
H        -0.76611351308718    1.90462687322292   -0.37713781312720
H         0.05406253921867    2.73204547505442    0.90953613090043
H         3.01685073191413    0.80077331563461   -1.14812571646734
H         2.45265465714841   -0.77913350850561    1.15432218144784
H         4.26242653396729   -0.90402502774450    0.90553091491086
H         1.38604565126043    0.07522844201175   -3.29907514277440
H         1.81992125708875   -1.70013807765016   -3.23125234662500
H         3.53938003984693   -0.02581092438104   -4.36801311694997
H         3.96844230204879   -1.39111815768921   -3.43945326292858
H         2.96001363562887    1.99019365882771   -2.93188133731610
H         4.50897238805329    2.25200556413836   -3.72647108283095
H         3.80448590983681    3.16403506171620   -0.96849936149020
H         5.49263304860231    3.15157663384680   -1.58619552582136
H         5.43699613059764    1.63570104578362    0.35332022657088
H         5.02358034315129   -0.76167865732759   -1.30967536887308
H         6.32266858555752    0.47433551500074   -1.62863690173140
H         0.17676079532185    0.04391616469299   -1.29796536353727
