33
 energy: -44.344307961576 gnorm: 0.122948166324 xtb: 6.4.1 (79825abcba525fcdf90b791dcacef51065a7a4e7)
C        -0.18268759969110    1.72473031087472    0.44449393278978
C         1.17800084503479    1.22747854737304    0.02964292182875
N         2.30460360393543    1.69744729917490    0.47246551350308
C         3.38938803334973    0.84817277228856   -0.09277575997596
C         3.29270383104433   -0.53564273597047    0.61124641247483
N         2.91786438058824   -1.43818417514183   -0.54895844049062
C         2.01972269159752   -0.84856481205560   -1.28207033836289
C         2.09586878819161   -0.94788562783342   -2.80924477806249
C         3.47938813474694   -0.42239662506305   -3.37622616388685
N         4.38561280615726    0.62550402685414   -2.82444077516113
C         4.16842890514930    2.07838527175851   -2.78244680422726
C         4.59727297276835    2.59520122821775   -1.38975570503848
C         4.77301143501586    1.33261337101543   -0.53896324380425
C         5.18734735610528    0.29424625407675   -1.62831809977396
N         1.12417020505871    0.13627059094620   -0.83629713036414
H        -0.91549509999825    0.94811181644367    0.63517112327211
H        -0.58590459641424    2.46478387003605   -0.24946163153100
H        -0.04913524219911    2.14147088137994    1.45879165252935
H         3.05920771583254    0.69390656228243   -1.09181449243163
H         2.55373753001688   -0.65778518250107    1.41415418013340
H         4.28280925495881   -0.85973678362440    0.94857292639553
H         1.33036529197896   -0.27933695129440   -3.22214111174808
H         2.05260415009545   -1.95598464297547   -3.23433643486938
H         3.28098998078200    0.00763625448864   -4.37017918954488
H         4.27111257099696   -1.16504916049757   -3.53802938875686
H         3.14284376482968    2.15561639870982   -3.16124486014565
H         4.81535499889976    2.50900424669959   -3.55471025208398
H         3.84162189657134    3.20011081923686   -0.88023464499707
H         5.50077278781837    3.21617209219610   -1.44892660335687
H         5.53802150510575    1.46891770219625    0.23030872089567
H         5.00520432996847   -0.71841791501611   -1.25940773687754
H         6.20491401793531    0.50331104003376   -1.97855766744020
H         0.25651287341026    0.18067892157571   -1.37098383291205
