33
 energy: -44.345395855456 gnorm: 0.131778160032 xtb: 6.4.1 (79825abcba525fcdf90b791dcacef51065a7a4e7)
C        -0.04821872891762    1.86462924165476    0.39624243072356
C         1.24788080553660    1.14282341358906    0.13175031574320
N         2.41701075782149    1.59803260680717    0.46658759476341
C         3.43671833130055    0.70445482408821   -0.14923494255132
C         3.28171329242477   -0.66658044059364    0.56921906300220
N         2.83088911677526   -1.49001903919208   -0.62236282628436
C         1.92957128999007   -0.84977749750343   -1.30754855765868
C         2.10534339895910   -0.81581198463108   -2.82934851993494
C         3.58485876429031   -0.50092308625836   -3.30222441604011
N         4.43270025250928    0.59322028635507   -2.74740812329337
C         4.04311618532031    2.00874600534882   -2.81303917652893
C         4.40326160975788    2.57669796467084   -1.42080345320216
C         4.75289686430139    1.41280690449013   -0.48700866494419
C         5.35570406823774    0.49647977788970   -1.59765829326176
N         1.04625035157726    0.10096879659247   -0.77233421830929
H        -0.74533781527363    1.05691268236045    0.59148550954541
H        -0.33453078683093    2.52327704886261   -0.42597774326895
H        -0.06921049073356    2.48819880011562    1.30785043301983
H         3.15274064832473    0.55905344230571   -1.16368583259102
H         2.48251408769756   -0.63481331496376    1.32149716102885
H         4.24559694991787   -1.05438005308529    0.91515927797752
H         1.26440800922870   -0.22184296047054   -3.20811596331765
H         1.82517398268266   -1.77304099801225   -3.28107419362588
H         3.53417238117845   -0.33586179168062   -4.38961504205366
H         4.12740428195572   -1.44229287006145   -3.14727946194149
H         2.96747713021570    2.17132602773951   -2.94662753664402
H         4.51431288490949    2.54099283220042   -3.64672010140045
H         3.62890654199711    3.25616672119899   -1.05306399396931
H         5.34247015077428    3.14475725232531   -1.44558023253992
H         5.45270556479860    1.68458339610646    0.30797809959501
H         5.47107020998318   -0.56643107710084   -1.37034612539302
H         6.29480848190630    0.89098957227152   -2.00295160552729
H         0.16631154553901    0.25041027555160   -1.26636473849374
