33
 energy: -44.343270161302 gnorm: 0.135014898245 xtb: 6.4.1 (79825abcba525fcdf90b791dcacef51065a7a4e7)
C        -0.14064174884746    1.76450567932021    0.51414009134588
C         1.15773039657102    1.13426449410167    0.08071243858122
N         2.26724735186150    1.63025489547048    0.53805464001110
C         3.37229392057958    0.87021117744346   -0.10903716264930
C         3.29732199992561   -0.55875068310421    0.50119855240007
N         3.05709769212247   -1.33535328732883   -0.77955967705615
C         1.98417772358216   -0.86061500427088   -1.34101212394771
C         2.05134246743265   -0.95583540259467   -2.86886898964191
C         3.48853479361495   -0.45536216938318   -3.31129087199124
N         4.36712603890404    0.59009601774433   -2.71220770702874
C         4.11415488303063    2.03624734543202   -2.77890234473630
C         4.60355052427660    2.60232759370077   -1.42589106468534
C         4.75860433755058    1.36431043483886   -0.53587323173549
C         5.24905066596055    0.29667553736219   -1.56358556839685
N         1.07834666966517    0.08303925304990   -0.83148732898481
H        -0.73708874242524    1.11413642721918    1.14483156121189
H        -0.77588152965695    2.07389008954814   -0.31807937679360
H         0.20468340283280    2.59362566479244    1.15727257471301
H         3.01712097813040    0.81227714236410   -1.10973258239696
H         2.52637506988864   -0.65526882232892    1.27706963341825
H         4.23958849626172   -0.93825888327762    0.91015118291871
H         1.32762420675669   -0.28009386166755   -3.34114175297240
H         1.92061490271445   -1.96204686462992   -3.28031421146310
H         3.40796502281163   -0.05545784117739   -4.33394318852300
H         4.20433356256528   -1.27544178810022   -3.45144147294952
H         3.03592616790008    2.20023359633563   -2.88757082610746
H         4.67764677208218    2.58223257349898   -3.54356823343842
H         3.84032903735588    3.31445245841827   -1.09892468866281
H         5.55636571511053    3.13888957617089   -1.52418845039490
H         5.38018944941007    1.66734251512114    0.31112271827399
H         5.26242058136971   -0.68551221428607   -1.08411907673858
H         6.29482599430780    0.46162619143630   -1.84812553012468
H         0.25809560866351    0.25774353727821   -1.41231245063012
