33
 energy: -44.345186697636 gnorm: 0.129118857756 xtb: 6.4.1 (79825abcba525fcdf90b791dcacef51065a7a4e7)
C         0.01446442356829    1.87821322984513    0.54376676516099
C         1.30976398085907    1.28528778358803    0.05236857762066
N         2.29682539069122    2.12770348350172    0.00502102481069
C         3.46230854287697    1.30676619332329   -0.42536619913323
C         3.72449520189031    0.31275360749491    0.74216861642075
N         3.43055989527317   -1.02201166939906    0.08401616371386
C         2.34485815933684   -0.88836794000908   -0.61965536310642
C         2.20069338496997   -1.46826431208526   -2.03063421700783
C         3.54785137018315   -1.17386188418812   -2.81180316996528
N         4.24176597466807    0.14307815916901   -2.90100788446282
C         3.46017174160316    1.32917562700325   -3.27794222538502
C         3.91741607592361    2.52649988311466   -2.41310888502031
C         4.63945039669750    1.84535687037899   -1.24538864814647
C         5.26222784957614    0.58808776090301   -1.92949182156539
N         1.25387408972487   -0.05568799059331   -0.32465261272235
H         0.01451148462701    2.89122892858876    0.15608118908345
H        -0.11765163778849    1.94516707016397    1.62538595084455
H        -0.86818231380157    1.41888764354097    0.06390893758204
H         2.97828279686624    0.76082168590379   -1.19903225451236
H         3.04480004405900    0.49584510336939    1.58486835456701
H         4.75228975365525    0.13096370764533    1.07341726691995
H         1.35961948131786   -0.95181457496151   -2.50949815379155
H         2.07711555479176   -2.55573942475610   -2.06169492598477
H         3.44850255268198   -1.50834517053849   -3.85606533028650
H         4.28069813351415   -1.91125806713264   -2.46006016688660
H         2.38081550215011    1.14045066151422   -3.25243758924994
H         3.54739329133498    1.63253802517554   -4.32708499779153
H         3.15866906911427    3.23076876987699   -2.05977591829399
H         4.72571854436823    3.12118375246501   -2.85854815231714
H         5.34025286257308    2.45885881005326   -0.67259731978062
H         5.63564767303169   -0.14427938684426   -1.20910605895727
H         6.09744411211695    1.01129736359578   -2.49968930818741
H         0.35561891215020   -0.50205888158630   -0.51061458680319
