33
 energy: -44.347240014932 gnorm: 0.124649839808 xtb: 6.4.1 (79825abcba525fcdf90b791dcacef51065a7a4e7)
C        -0.06049618565837    1.93539387921918    0.62002113864717
C         1.23766060653706    1.33446302539551    0.14620180717506
N         2.27881470845257    2.10312839116818    0.03967517200869
C         3.41255643771477    1.27228920933434   -0.45211555382366
C         3.74005923377242    0.26909375440662    0.69081104416857
N         3.28384733949860   -1.03686910435938    0.06832194750958
C         2.22560451178278   -0.83149902218629   -0.65948831887290
C         2.34256873437598   -1.63902347755810   -1.95646488497025
C         3.61852134652965   -1.20248805827637   -2.78899962702671
N         4.16384934809829    0.18245545333731   -2.88040455047681
C         3.49354748762696    1.41029935294863   -3.33083879592671
C         4.07381548337763    2.56815152153095   -2.48629047216953
C         4.59408582832260    1.86228244088945   -1.22933879333033
C         5.21592477746736    0.61890371413397   -1.93919806526568
N         1.16434146767882    0.02627251527003   -0.32997733440537
H         0.29798161810625    2.85668292495833    1.06636302229935
H        -0.52933996889293    1.22440360416546    1.30304081342119
H        -0.68780528959833    2.23677819297096   -0.23785972660121
H         3.06286857552299    0.70271948260436   -1.27928193161585
H         3.23284603489946    0.55875685154840    1.62058570119285
H         4.81808565268168    0.25742848920528    0.88279499468488
H         1.53335655233135   -1.42593338040030   -2.66583401417720
H         2.37186640537552   -2.72290483392391   -1.80421111300398
H         3.34121348724061   -1.56138201216065   -3.79225841422741
H         4.40456108915826   -1.88575635652587   -2.44283983568506
H         2.39970010352851    1.40349868956889   -3.26207006307955
H         3.80934019154431    1.47087350555960   -4.37818909144677
H         3.21581992517839    3.20682497017447   -2.25721467623177
H         4.92118196465959    3.07494237020974   -2.96644774513023
H         5.27701508307769    2.49723899266790   -0.65834278423585
H         5.48727790338831   -0.16300912309596   -1.22523766826471
H         6.09747157935849    0.92180020491175   -2.51621340075922
H         0.29079663014034   -0.44406172120250   -0.56745642717821
