33
 energy: -44.345761887656 gnorm: 0.122018427676 xtb: 6.4.1 (79825abcba525fcdf90b791dcacef51065a7a4e7)
C        -0.08312614707796    1.80093630649172    0.46367441374229
C         1.20932337964290    1.20191652187156   -0.02783675179153
N         2.32669458332073    1.62380702486012    0.48175743037654
C         3.45382658280262    0.87118065822792   -0.13521029660811
C         3.34680361162314   -0.56668022114895    0.44877821568019
N         2.85594272066338   -1.42095046635312   -0.70466831041584
C         1.89980779242505   -0.86761764128712   -1.39124774356473
C         2.08860019765862   -1.00609959835960   -2.90554784456601
C         3.52155670911016   -0.45584199321109   -3.29998994496557
N         4.35666839776793    0.61948193853408   -2.69165372943361
C         3.99885586825983    2.04412606670170   -2.64522579811943
C         4.65141339041816    2.61388788018531   -1.36454839059445
C         4.85566905161221    1.41261405213742   -0.43498896239995
C         5.28968870597376    0.42439948194177   -1.56265621383510
N         1.05650537222506    0.16104681026550   -0.94256162420894
H        -0.76609058573316    1.02239648218816    0.78606583233257
H        -0.65573278063464    2.39838050838632   -0.24837867708759
H         0.03571212904736    2.40984485043313    1.37768570526941
H         3.12438175268552    0.73848903161180   -1.13758474223266
H         2.62935362444276   -0.62024214705854    1.27826449556948
H         4.29111235089976   -1.01852307221767    0.77010969196857
H         1.27624405255649   -0.48530600391411   -3.42735991590516
H         2.04020812306017   -2.07066510764121   -3.15693769788156
H         3.35737864975203   -0.09540051586203   -4.32729721579399
H         4.09586725612164   -1.38772189668905   -3.22056766979365
H         2.91434712093827    2.20174802076288   -2.62868525826627
H         4.39925717212560    2.45642677324564   -3.57797647616692
H         3.96436844642943    3.22382529192074   -0.77084688898934
H         5.58965281297547    3.06774599350132   -1.70971143141114
H         5.55569786807123    1.46384754311372    0.40342228330913
H         5.11685741855480   -0.61449141098612   -1.27009046593753
H         6.27742461630095    0.71468040448674   -1.93939552297582
H         0.11471684842578    0.20043168766080   -1.33265700797177
