33
 energy: -44.345703141082 gnorm: 0.105654567676 xtb: 6.4.1 (79825abcba525fcdf90b791dcacef51065a7a4e7)
C        -0.06756578802649    1.79407145237029    0.48785028783433
C         1.30372940986856    1.38667754908397    0.01412738883946
N         2.33976391732317    2.16901085799987   -0.01386025722899
C         3.52718295293830    1.35652701157941   -0.39782404252534
C         3.80401552263175    0.33311204743139    0.74056338171682
N         3.37300365344697   -0.96992871498440    0.09444073244527
C         2.29506601330931   -0.88317445107022   -0.62825329238674
C         2.19884822518468   -1.57912341677789   -1.98998813020242
C         3.51247231167141   -1.21168136457398   -2.79690228127691
N         4.16418303685154    0.12961216040653   -2.80019416692836
C         3.40038849146807    1.31112390568957   -3.22498132454260
C         3.98702154524498    2.52034702324861   -2.46062828197810
C         4.68382992978984    1.88889142998285   -1.25042920054290
C         5.26272056145482    0.61281879157361   -1.93825095931799
N         1.28067105752721    0.06868110842281   -0.43956674639257
H         0.05577961872901    2.44413757340300    1.34732737299078
H        -0.66349190528626    0.91298295950003    0.73359948410928
H        -0.52780162581295    2.30138143783881   -0.37882632328203
H         3.14149973650080    0.72748083112071   -1.16362091483079
H         3.16256723440278    0.53171321740571    1.60932831786764
H         4.81146006377035    0.25918306956163    1.16332201899080
H         1.20972794174423   -1.35675041073050   -2.40906761297609
H         2.23886680331363   -2.65988354068089   -1.81912433107114
H         3.28014500502459   -1.30327140510093   -3.86922126477088
H         4.20637029323892   -1.99017986471896   -2.45486964515461
H         2.36620445284060    1.24915088314214   -2.86734993685442
H         3.54858303692316    1.54817499493493   -4.28431227230216
H         3.35662864277011    3.37486207695620   -2.19805509250527
H         4.71731493630618    3.02936416515905   -3.10327206773689
H         5.41453871220684    2.48854646140843   -0.70081374955716
H         5.58613856733000   -0.07220622284849   -1.15027813545649
H         6.08751980174979    0.85863581727077   -2.61729289100875
H         0.37642842174848   -0.35797250231702   -0.64205908731617
