33
 energy: -44.338224409960 gnorm: 0.125329985213 xtb: 6.4.1 (79825abcba525fcdf90b791dcacef51065a7a4e7)
C         0.06074377371285    1.93550134270647    0.49892226462167
C         1.36136966145092    1.32500958899241    0.04449315937010
N         2.36882507710427    2.12631225115526    0.21520886114756
C         3.51950970017714    1.30479577285127   -0.25229272032681
C         3.80348943418135    0.21494636346384    0.82079821289144
N         3.26108886058651   -1.05570164574662    0.19436690883089
C         2.29415782686543   -0.90077533905113   -0.66167322481514
C         2.26733702670141   -1.54615178410355   -2.05116754805880
C         3.58756836439270   -1.15473458041189   -2.83571463795717
N         4.23476684329957    0.18496077929244   -2.93649412918066
C         3.34653213774707    1.30691863923292   -3.27122673255109
C         3.84743964431077    2.47983880093783   -2.39718758916027
C         4.58344624324057    1.87112441276413   -1.19859634262190
C         5.20108327691041    0.62624898440658   -1.90950011174678
N         1.31148719823461    0.10087798212872   -0.62071223601810
H         0.07576123737749    2.98454619837895    0.22364009318158
H        -0.06165904854857    1.87891202156577    1.58227480775746
H        -0.79218773033464    1.41691557031809    0.02575692732453
H         3.10192076249437    0.72039044655476   -1.03650275934790
H         3.24014680663203    0.65946297890789    1.65188238660399
H         4.84445163215656    0.09141239447803    1.13745562899085
H         1.41268174918842   -1.14972736161813   -2.61317140687465
H         2.26911161797468   -2.64020162427688   -2.09464346816108
H         3.36620365859185   -1.49698940281662   -3.85850103862416
H         4.41133037752725   -1.79108512661337   -2.48784285578088
H         2.33072842108431    0.98622945923554   -3.01319814694417
H         3.42150423283173    1.50414645103596   -4.34631615957350
H         2.97550177474030    3.13548463927535   -2.31725792975054
H         4.52263314687402    3.02863667465548   -3.06677891957659
H         5.39810023059361    2.55354911577320   -0.94123663184493
H         5.42512469818364   -0.21439095673722   -1.24776785454315
H         6.09306607412193    0.95906032857498   -2.45302659890085
H         0.37430719956234   -0.29690972217876   -0.68513109350250
