33
 energy: -44.341024921662 gnorm: 0.129530309528 xtb: 6.4.1 (79825abcba525fcdf90b791dcacef51065a7a4e7)
C        -0.09776828344648    1.90665211922902    0.51187886689851
C         1.22791599230693    1.33054479767388    0.08585626642900
N         2.31705231294273    2.02809928303381    0.20159758593879
C         3.48720153075573    1.24824868709957   -0.28840855606310
C         3.81837516892424    0.11729127392012    0.72707150506249
N         3.37658081921530   -1.12180047383034   -0.02832928377774
C         2.28512099531119   -0.86025903013954   -0.68565268771935
C         2.27775029657652   -1.52906045516031   -2.06426610447753
C         3.59152072515472   -1.14350983142510   -2.86244549924636
N         4.14737566191006    0.23961255041749   -2.90491682546872
C         3.46462508278939    1.49223970796310   -3.25786597264356
C         4.05883117554319    2.59019175282811   -2.34571747028509
C         4.62122438108200    1.81505868859168   -1.14916303130671
C         5.19789037896531    0.59070544632249   -1.92697405530956
N         1.24218381340555    0.05664694111930   -0.48024034381946
H        -0.39272050687767    1.44374884498762    1.44741328856847
H        -0.91438089586310    1.85873920399683   -0.21109120671032
H         0.20444161050433    2.95437968263685    0.68864123749540
H         3.09415734870401    0.80195020451049   -1.17001471964256
H         3.12472886966924    0.04460411177529    1.57514122098059
H         4.88810698650456    0.04731938209812    0.95048288879427
H         1.30821315076076   -1.33224151197157   -2.53828756149473
H         2.28705299716436   -2.61690259364001   -1.94036566997345
H         3.17776162576308   -1.25806172700036   -3.87630643516660
H         4.33588589058033   -1.90652094534929   -2.60115027663975
H         2.37356361242858    1.52739544687202   -3.15975158609375
H         3.63058733266037    1.71156064018232   -4.31838083043098
H         3.34474907184831    3.35734797109166   -2.03251792189035
H         4.81673098356724    3.18387427016547   -2.87349287086084
H         5.44619936826678    2.27793706978436   -0.60074849378692
H         5.31308579245843   -0.26486087577495   -1.25652947004094
H         6.17224073329418    0.87426296041335   -2.34176830719172
H         0.34370035000032   -0.12261229335982   -0.92888808447876
