33
 energy: -44.345835448114 gnorm: 0.115306789389 xtb: 6.4.1 (79825abcba525fcdf90b791dcacef51065a7a4e7)
C        -0.06002540541829    1.87749336115862    0.51186993853471
C         1.26359744209379    1.24413499940452    0.16877600693997
N         2.29728365876751    2.03006584295392    0.16745507698734
C         3.50783246849709    1.32066326727405   -0.33138529283300
C         3.78859686296538    0.22567183844641    0.73730807458306
N         3.33165589768244   -1.04500792836728    0.04612153833734
C         2.31005297584497   -0.84140441659249   -0.73274661297889
C         2.22067596545216   -1.56354502458077   -2.08124551579059
C         3.46063888028961   -1.09265842957163   -2.94870741021339
N         4.12045862600585    0.23920370872907   -2.82793002462611
C         3.47522916268558    1.49664324213539   -3.23082082947616
C         4.12051380307806    2.59954828745492   -2.36030221844847
C         4.68966722408695    1.84870752542527   -1.15151669827314
C         5.20535080779144    0.56829224163989   -1.88033879955792
N         1.21712074976871   -0.01448199524078   -0.42889268214007
H        -0.79719958810329    1.09341528437377    0.64713524747096
H        -0.28340629738686    2.50007790096461   -0.35665007464542
H         0.10187931210864    2.60965289215748    1.32306540043408
H         3.03773926359218    0.80175446396341   -1.13178614446318
H         3.35577628050105    0.38128993906205    1.73435380630402
H         4.86655680857922    0.07734963980969    0.86034364994432
H         1.19500563976314   -1.44955550114741   -2.45332490590484
H         2.47434128185468   -2.62824076034833   -2.05099214186012
H         3.20860327977775   -1.23766646771157   -4.01063181333860
H         4.23888742475891   -1.82260809621281   -2.69171842446456
H         2.42584034076121    1.25073005892661   -3.03185525762572
H         3.49513391115356    1.70717766892256   -4.30581662190501
H         3.33095614634003    3.29563353421251   -2.06264485713446
H         4.88682764833897    3.10737558169104   -2.96054587711646
H         5.42909355044108    2.37995400981000   -0.54602144405939
H         5.39522042504265   -0.32592860808026   -1.28110741622203
H         6.09984936281576    0.78928910369108   -2.47435097610323
H         0.35309198320489   -0.34973544357857   -0.85521487297668
