33
 energy: -44.341849370387 gnorm: 0.124238663241 xtb: 6.4.1 (79825abcba525fcdf90b791dcacef51065a7a4e7)
C        -0.05778364578453    1.85978151420700    0.60868623239446
C         1.24333839055866    1.38199587035863    0.01738593611978
N         2.29021196797859    2.13894734140518    0.14882575771250
C         3.45766388952789    1.33772202268026   -0.31227744947476
C         3.76561022912273    0.24576082611287    0.75202053502937
N         3.40703007448382   -1.03343060020569    0.01972925134111
C         2.30372062923638   -0.85352318859036   -0.64517985778206
C         2.20498268112101   -1.49124308806046   -2.03495997449519
C         3.57741140513950   -1.21364013638084   -2.77732671428056
N         4.29676946238002    0.08889908990656   -2.87592489644329
C         3.46433263498959    1.22849214098115   -3.28601374541200
C         3.91295219032215    2.45133645783863   -2.45295508090198
C         4.58318561375129    1.88560292390298   -1.19613662104664
C         5.26404368125039    0.69113629021949   -1.93522813876919
N         1.26508418396548    0.07271676408299   -0.46094454098435
H        -0.03356513712715    2.93780575625818    0.49130601758577
H        -0.06741746103388    1.49755660479214    1.63851041557216
H        -0.96201489080054    1.57461076189501    0.04180680079927
H         3.12198131951756    0.76671773779801   -1.14424308094895
H         3.14098378334066    0.41136086581597    1.63975319879278
H         4.80391943783572    0.07640934869044    1.05594312107455
H         1.43897980834352   -0.98830595782034   -2.63806042877286
H         2.11777765009130   -2.58266406925200   -2.02913772224704
H         3.46247887482613   -1.41181321067524   -3.85424392082574
H         4.32831460189620   -1.86699703480365   -2.31493098672325
H         2.39189661116841    1.00559215033883   -3.24762021936260
H         3.58130830564153    1.50325940175010   -4.34012785202597
H         3.12929950582222    3.19959994416334   -2.30286811631974
H         4.72744615698644    2.90117525893682   -3.03576084455677
H         5.37274285914249    2.53317906359249   -0.80518505452334
H         5.70034628249630    0.04588663890554   -1.16838227367470
H         6.03267823482948    1.01303345977769   -2.64754891205421
H         0.29125435245080   -0.15646746783663   -0.66049717421908
