33
 energy: -44.342526884667 gnorm: 0.135810111499 xtb: 6.4.1 (79825abcba525fcdf90b791dcacef51065a7a4e7)
C        -0.00068570153271    1.92921830159675    0.59729631464929
C         1.29055309279129    1.31189236020110    0.12565581710110
N         2.27632254904560    2.15610426491510    0.08369078436098
C         3.40417606028531    1.31614622633785   -0.40614502345231
C         3.78139393613903    0.24607718037357    0.65809146675608
N         3.28322589237981   -1.07014916784763    0.09193093305319
C         2.24451040654235   -0.86251606727588   -0.66286781655571
C         2.23332338020366   -1.55026426019823   -2.03210185676565
C         3.58808418543777   -1.15571519164383   -2.75368798532067
N         4.30937222234199    0.13985518330615   -2.91195044583733
C         3.52357234404551    1.30063099180500   -3.35344147033491
C         3.99502244178822    2.54932019253974   -2.57298996660429
C         4.51299638385915    1.91714723471491   -1.27648687963018
C         5.24201361994494    0.68876524732152   -1.90592002328093
N         1.18744399927141   -0.00613999720878   -0.31666068844580
H         0.31292744829012    2.66671546135126    1.32821740848658
H        -0.69269685284686    1.19297076769871    1.01069402962212
H        -0.54292510533152    2.46412105427078   -0.20280634444987
H         2.92764199011984    0.71927867693346   -1.14611792787006
H         3.33438922199803    0.38473095729263    1.65137529550239
H         4.82442076349800    0.08561219329414    0.95046262569398
H         1.33452570383387   -1.25872852001777   -2.58942218665992
H         2.26439927541330   -2.64472025089352   -2.03832553615844
H         3.46762054053596   -1.48007736563157   -3.79892021119443
H         4.38273317450652   -1.69981561007627   -2.22735313759865
H         2.44606045814178    1.19712995230822   -3.18158931474506
H         3.79443575786659    1.32330157012743   -4.41478776677256
H         3.16764502888264    3.23888968711569   -2.38200201135235
H         4.90603652963826    2.97635295805904   -3.01243765853510
H         5.24767121341130    2.45308748289707   -0.66934638874444
H         5.40402303374894   -0.11808607602402   -1.18654282996849
H         6.18064759588284    0.98304947888299   -2.38984232720081
H         0.24198916819152   -0.35996626012688   -0.46367540218264
