33
 energy: -44.342691832646 gnorm: 0.126262064541 xtb: 6.4.1 (79825abcba525fcdf90b791dcacef51065a7a4e7)
C         0.02539551723960    1.99376997939305    0.41983600905278
C         1.26721935668376    1.19504692160389    0.11859068161979
N         2.40060827899970    1.72721397554066    0.46271860572909
C         3.49567267325902    0.89711398483986   -0.11111948713963
C         3.51858221054955   -0.40473370891902    0.74011969536529
N         3.10007329434394   -1.37083409697270   -0.35197063351027
C         2.10058318772638   -0.93767911083095   -1.06271589479054
C         2.12368614591387   -1.13027548980825   -2.58268218137300
C         3.51353663010296   -0.69643945738967   -3.20864887635401
N         4.26983164589178    0.54174301390889   -2.86407948091589
C         3.73375908480884    1.90171989857350   -3.01535848042854
C         4.19094491090514    2.65316867364581   -1.74378452500187
C         4.69664786017709    1.57391921266632   -0.78027788741538
C         5.20068843154385    0.43526398474009   -1.72154400347567
N         1.17032821852125    0.01348939813121   -0.61490685263713
H        -0.23109583474812    1.93878672525718    1.47230450695727
H        -0.76246185257903    1.70189362969910   -0.27724827898332
H         0.33017081816772    3.01085803774064    0.11495455439036
H         3.14554197303660    0.54022584558181   -1.04970078046038
H         2.82975948598873   -0.44529573901260    1.59424429238712
H         4.50709643512717   -0.67670611221810    1.12483454432647
H         1.35125998459990   -0.51285168011293   -3.05763689517621
H         2.14272831047022   -2.17549151530225   -2.90825741372733
H         3.30622846852127   -0.69515254388757   -4.28996954656970
H         4.16250244060700   -1.56971933490066   -3.06454374921034
H         2.66708760945514    1.93739166630746   -3.26479180073945
H         4.16003156661637    2.26950526609377   -3.95523219480766
H         3.43862165372129    3.32345977215385   -1.31804348748387
H         5.02201509685172    3.26871601764969   -2.11235166833667
H         5.47104734728233    1.95488192186306   -0.10888271121816
H         5.18018220677537   -0.57055733313289   -1.29415351617394
H         6.24370213732771    0.52514390548080   -2.04690804221994
H         0.28624549150800    0.00752199957872   -1.12387967457906
