33
 energy: -44.339959673211 gnorm: 0.127191120092 xtb: 6.4.1 (79825abcba525fcdf90b791dcacef51065a7a4e7)
C        -0.14969673178895    1.90236539155115    0.43175074402511
C         1.20797656701223    1.35828026233260    0.06908243911228
N         2.29850734568268    2.04233213487587    0.23941122272545
C         3.48357825492655    1.32179283470239   -0.30276237808483
C         3.97148320136891    0.25129383379012    0.71503969149930
N         3.42385300103580   -0.98569381775400    0.02865520135528
C         2.32203313715892   -0.77469456512459   -0.62955057058573
C         2.31861329504722   -1.57381224593582   -1.93696170205830
C         3.53814380734215   -1.16499059932987   -2.86288964931174
N         4.19435920629199    0.17402110367214   -2.87822134136543
C         3.41515090189322    1.34222123836475   -3.31174079454712
C         3.99971174513416    2.50040817358856   -2.47061886038854
C         4.59447159993105    1.84650098919278   -1.21861006836372
C         5.17172191243982    0.53097608571913   -1.82914330108011
N         1.20514243714011    0.03461485277709   -0.36839505694758
H         0.06444863918564    2.96563104401864    0.44218302537188
H        -0.61954315973746    1.53235677692630    1.34508282663280
H        -0.81457856951341    1.73657994697609   -0.43471109995450
H         3.02327791077688    0.76070320829309   -1.08006381031305
H         3.44876027013368    0.35326131549478    1.67525540742539
H         5.06244408977706    0.18109857181755    0.77837876319835
H         1.38563537553846   -1.33084360456236   -2.46036857978214
H         2.37654929456322   -2.64924713860270   -1.73967615012582
H         3.15266043538231   -1.34800492418155   -3.87784829318583
H         4.31003271664983   -1.88234818210692   -2.55608960522916
H         2.32003689870503    1.35077539128192   -3.26781315471589
H         3.60961902002661    1.69151153859339   -4.33179733252093
H         3.25324919869455    3.23515764347648   -2.15522584522848
H         4.75331605063396    3.02977765602871   -3.06833654017285
H         5.43465919269299    2.37825026841819   -0.76371871791709
H         5.34631763688379   -0.15285543732547   -0.99448742279628
H         6.11014412614668    0.78925491710744   -2.33359700886229
H         0.38032650961884   -0.22541720845753   -0.90946179798510
