33
 energy: -44.341659413184 gnorm: 0.125817949814 xtb: 6.4.1 (79825abcba525fcdf90b791dcacef51065a7a4e7)
C        -0.06315583881221    1.91944350483224    0.64645750835622
C         1.24929604179789    1.36913819521305    0.15101039210785
N         2.31428624888250    2.10818634204164    0.22716770161662
C         3.47122871049572    1.36071125078095   -0.33877160196750
C         3.84611034684266    0.20064133920335    0.62747989843080
N         3.32048420372987   -1.01834108869012   -0.10665902038045
C         2.22413021730194   -0.80374561428022   -0.77278157870641
C         2.19032423173741   -1.55966137039136   -2.10521287149342
C         3.60150938023345   -1.21175177493462   -2.73707343907823
N         4.30580673193530    0.10266734403479   -2.74565719241457
C         3.52219993497480    1.21895403458457   -3.29306990284071
C         3.96110247317932    2.50598218770411   -2.55719113372346
C         4.54301979306797    1.98519091332033   -1.23847638466003
C         5.23962059480826    0.69050087546384   -1.76297572476922
N         1.20809114410959    0.10055900313843   -0.42561226684476
H         0.05707509790650    2.98811514870234    0.78783060795714
H        -0.29922853907708    1.39784684018100    1.57599725746180
H        -0.74782503351367    1.69048658827051   -0.18967383692324
H         2.93581773907579    0.82562242464047   -1.08570569245341
H         3.20419228726434    0.33556966323978    1.50804017783827
H         4.90280965444179    0.05018713447723    0.87219397257446
H         1.37090064672292   -1.18363923787404   -2.73018379961887
H         2.23873689700420   -2.64931598519595   -2.00957077866665
H         3.54956758368252   -1.39999014789709   -3.82063289305051
H         4.27410912451297   -1.94762085011952   -2.27811053345887
H         2.50216911445473    0.92586418088926   -3.01936758243178
H         3.66794962868608    1.34356365627724   -4.37175724168194
H         3.12731540791680    3.21139200644272   -2.49610113511146
H         4.76495127635485    3.06081994649520   -3.05858926696926
H         5.33325244736644    2.54730091263938   -0.73333944143994
H         5.55503135239979   -0.11061041081315   -1.08955429792400
H         6.01927889804213    1.04611141112688   -2.44670946718929
H         0.31102601837836   -0.21894765680347   -0.79150960208971
