33
 energy: -44.338057120308 gnorm: 0.120204266175 xtb: 6.4.1 (79825abcba525fcdf90b791dcacef51065a7a4e7)
C        -0.12212298463333    1.70042024332253    0.79278668247073
C         1.07157234499689    1.02189124913409    0.17188123501042
N         2.22361662780646    1.55470667369897    0.44592125871897
C         3.34072646698741    0.83460489403178   -0.22567474571372
C         3.20652160254786   -0.59604590884132    0.37028476548165
N         2.69287367519735   -1.38193062617881   -0.82123190301717
C         1.84600041273624   -0.68346384574500   -1.51887963993417
C         2.07419453074096   -0.58560984142878   -3.03092350099351
C         3.63175376468323   -0.49787861773528   -3.31028851570345
N         4.58603717098788    0.48346580024145   -2.71858559912782
C         4.20736833239085    1.90341697919214   -2.73061917919586
C         4.58853687949987    2.54638096322633   -1.37714131956646
C         4.77154761871264    1.32779559538630   -0.46586930636403
C         5.45759292255875    0.41199357122304   -1.52757689681623
N         0.90130586610034    0.15528881814333   -0.90677267108858
H         0.11102309335051    2.75563664923311    0.69971596423474
H        -0.17729923820893    1.38092851244886    1.83524443141660
H        -1.01712500593794    1.31036161204689    0.27593617902666
H         3.14974736742654    0.75932856529395   -1.26910943222100
H         2.55389477566111   -0.52505478005157    1.25044914503166
H         4.12301314457565   -1.11527385925660    0.66958471836890
H         1.56902627786162    0.31123015940600   -3.41029054525201
H         1.59034641222675   -1.46019536098564   -3.47794647050284
H         3.79229843664932   -0.43760597870400   -4.39786625049525
H         4.06599076048063   -1.45205709960038   -2.98544654492957
H         3.14536205304099    2.09223551279461   -2.92495835269400
H         4.79337307618347    2.37657342671721   -3.52626880032385
H         3.85361691772737    3.25274000432366   -0.98029698579862
H         5.51389498366465    3.13290152832760   -1.44872294727511
H         5.45677749335714    1.43109763203105    0.37993642419130
H         5.58004422399740   -0.62546736795863   -1.20595580327125
H         6.39549517579512    0.92880897622011   -1.76222332227761
H         0.01012848718880    0.35924595788716   -1.35942658267437
