33
 energy: -44.341747170724 gnorm: 0.107611749796 xtb: 6.4.1 (79825abcba525fcdf90b791dcacef51065a7a4e7)
C        -0.11468878838543    1.71674328645821    0.60111445708263
C         1.26309736120913    1.24960085867526    0.20828244258283
N         2.27287051101905    2.06287209826344    0.28000622874794
C         3.41374575418335    1.32804572514931   -0.33314631419330
C         3.75485439177636    0.15172521949706    0.62594459317017
N         3.34829770020940   -1.04247333546750   -0.21652938989796
C         2.18784393932307   -0.88374999379446   -0.78214099636063
C         2.08591467631958   -1.26076990038109   -2.26382619220179
C         3.51781350351215   -1.07382384620430   -2.91685703540229
N         4.30366488141314    0.19177029394038   -2.84966233552478
C         3.59995626918831    1.43639581450979   -3.18951194274706
C         4.23819843213547    2.56860593850058   -2.35205051565507
C         4.65727782139767    1.80209742463431   -1.09280587348890
C         5.25884486646753    0.53376744834547   -1.77547027164363
N         1.16495493058258   -0.01245705195123   -0.37572318913707
H        -0.68612087459889    1.88826067004089   -0.30472662794311
H         0.07795730746518    2.64194071258012    1.14768078315259
H        -0.63370588113116    0.94921264553903    1.20263483728049
H         2.96432495458031    0.88170127080236   -1.18736704843000
H         3.12597011402841    0.32858865845419    1.50848339543474
H         4.80373685043696    0.20100673386217    0.93667243152489
H         1.37115888523824   -0.71457026394702   -2.89170071694760
H         1.76106502715326   -2.30321218048552   -2.34522132894868
H         3.31009447674509   -1.20187200297514   -3.99049067654376
H         4.21906412024399   -1.86263414123565   -2.61591428465209
H         2.52276596475100    1.30232913180506   -3.03797097486897
H         3.90405276866927    1.65190328912831   -4.21976373360007
H         3.52221928360448    3.36835175822237   -2.14153602045265
H         5.10943784807413    3.00804938572302   -2.85528928550433
H         5.49785091049845    2.12265960624609   -0.47129529697006
H         5.54462286061931   -0.34445570242191   -1.19082107211332
H         6.13277129749395    0.91599095076563   -2.31581787804948
H         0.19341847020015   -0.27299660566346   -0.54580329026671
