33
 energy: -44.344589881425 gnorm: 0.117014305567 xtb: 6.4.1 (79825abcba525fcdf90b791dcacef51065a7a4e7)
C        -0.13460942763936    1.75945070624546    0.46583325559793
C         1.17832949939980    1.09493939230127    0.14110288895684
N         2.28738056978314    1.61023323458986    0.57776549102460
C         3.40009549146842    0.85489259367724   -0.06164688747816
C         3.37586233300284   -0.57768470485038    0.54422062675952
N         2.91145221305809   -1.40800475733903   -0.63732615763879
C         2.01416194840383   -0.79579538188279   -1.35275077889344
C         2.05319032594902   -0.80923487108821   -2.88448860796291
C         3.50202266659649   -0.44107996190461   -3.41087171545085
N         4.33868826878499    0.56027164662290   -2.68900492148503
C         4.05063135004094    2.00046590348323   -2.74057974528754
C         4.65386761658639    2.60623897395489   -1.45227098620996
C         4.75912822901635    1.39352289041339   -0.52108904173152
C         5.22242266381258    0.29979156856020   -1.53384991312156
N         1.08061526838543    0.12947258741465   -0.85980194635100
H        -0.82515923481995    0.99395936637934    0.80297548992324
H        -0.63861932572376    2.10303606970731   -0.43957309776056
H        -0.02141434225741    2.62935402689140    1.13722277024079
H         3.02596317564763    0.76454336157066   -1.05298816079877
H         2.70670712662198   -0.70156297598810    1.40592610619987
H         4.40767121788697   -0.90411047543708    0.71140770034409
H         1.29101179973595   -0.19448582235281   -3.37906297808726
H         2.00916231365394   -1.79359459510855   -3.36191487598890
H         3.42819300025784   -0.27370610663525   -4.49658249043815
H         4.16017953961017   -1.31700711784492   -3.34667045502365
H         2.97559303375673    2.20862806498628   -2.78789385444523
H         4.58436772269042    2.46809778746001   -3.57531491776942
H         3.98978790153218    3.38198383600283   -1.06015631930970
H         5.60539663173663    3.07729559548123   -1.73176359121035
H         5.36944700111825    1.72521488800609    0.32335755011647
H         5.20799429221147   -0.74196133366768   -1.20324083084666
H         6.28259202922293    0.47477243386804   -1.75119838434047
H         0.19607879015500    0.28728426874648   -1.34289810410072
