33
 energy: -44.337694884314 gnorm: 0.135936555567 xtb: 6.4.1 (79825abcba525fcdf90b791dcacef51065a7a4e7)
C        -0.05432441908930    1.99187947356979    0.47932775625498
C         1.24652061585617    1.30082444964713    0.16139874609911
N         2.26046039044616    2.07863950044535   -0.06909230165116
C         3.46661399870710    1.26861962168078   -0.39556348474175
C         3.77991018048795    0.24282363914529    0.73117006922768
N         3.38657472600257   -1.10950178318266    0.16755306551284
C         2.31687989617463   -0.92893429139136   -0.55001984218610
C         2.29890450782766   -1.50636202486952   -1.96923747664821
C         3.56212892872599   -1.13836603249205   -2.85273924019367
N         4.17009345013265    0.22331864219422   -2.85289516215904
C         3.43853877329052    1.38918471970897   -3.36804590506398
C         3.96391642864349    2.52788521429384   -2.46364888814338
C         4.60266019350544    1.81746119209117   -1.26524827906799
C         5.25733160805793    0.55505816386855   -1.90892401655990
N         1.28048099805731   -0.02817377978339   -0.25823811055769
H         0.11881231055969    3.03003400121505    0.74154857960295
H        -0.60548901792581    1.49409344747469    1.27949286082038
H        -0.66452214691022    1.86732116996487   -0.43306073652247
H         3.06830789411429    0.64131711373165   -1.15631265753840
H         3.26618073440340    0.52644092319940    1.65922941104001
H         4.82285170243132    0.22291663169580    1.06435404938762
H         1.48630362796264   -1.08739016310278   -2.57552016410210
H         2.31668224857569   -2.58850799838349   -2.13501565890860
H         3.38626312550870   -1.45583884025740   -3.89221745066444
H         4.31531763698286   -1.83048348405824   -2.45496939022844
H         2.36648766791030    1.16126536236014   -3.37410264454977
H         3.63114641087175    1.68781426479563   -4.40441436857391
H         3.24575859472846    3.23658476925613   -2.04112062079515
H         4.63846234199631    3.18571663552848   -3.02726538411558
H         5.34675043248143    2.42471612841509   -0.74259180734939
H         5.36713186287022   -0.25616859196616   -1.18462110422296
H         6.21900277796566    0.92081701718055   -2.28737713985541
H         0.33913668130913   -0.35051021542731   -0.48331876495255
