33
 energy: -44.345877425259 gnorm: 0.111009351497 xtb: 6.4.1 (79825abcba525fcdf90b791dcacef51065a7a4e7)
C        -0.23074889575610    1.62236905357429    0.53852522553564
C         1.12070216810438    1.08386402459527    0.14555442517306
N         2.22214453881965    1.65104317183122    0.53456436794417
C         3.35195211608955    0.93345258722548   -0.11821487925983
C         3.37673420950616   -0.50188446779044    0.48106284213136
N         2.97621969304886   -1.38094009487394   -0.68855687304962
C         1.99513328461009   -0.81332608475734   -1.32655868313717
C         2.04785021162995   -0.79285552181898   -2.85780865383522
C         3.47235909864322   -0.38641495438978   -3.42111393524080
N         4.41019225405823    0.51029630112183   -2.68614188329647
C         4.30562270118227    1.96879433382479   -2.83326406688061
C         4.62950718057405    2.60464430980922   -1.46162704926155
C         4.75474057705226    1.41444110308731   -0.50423850545720
C         5.24841779947863    0.30633381015011   -1.48656001068743
N         1.03121038106547    0.05596387487742   -0.79194073684148
H        -0.68696300990184    0.94687149157641    1.25411773042939
H        -0.92908969658042    1.83809196812423   -0.27241329259248
H        -0.06880910241517    2.59034494289084    1.04558239863884
H         3.01233111920781    0.84756864299876   -1.12229506312752
H         2.64854859192976   -0.52001491371798    1.30268796606169
H         4.38738918567868   -0.70915733368510    0.84814505391167
H         1.31620252268848   -0.05603798783846   -3.21168417798950
H         1.86043816270620   -1.77909355502766   -3.29490089627111
H         3.17237565863126   -0.04967134697083   -4.42552739137427
H         3.99846582372640   -1.34875808504266   -3.46171027300948
H         3.27749274990020    2.13497441361763   -3.17474682586521
H         5.01835144146157    2.19220462047433   -3.63478916742869
H         3.95387378315339    3.44350439383819   -1.27092010925048
H         5.61820434357275    3.08201275354955   -1.45772685086746
H         5.45070969009694    1.63802415762987    0.30892582846947
H         5.11116266735435   -0.71154184945345   -1.11259501473614
H         6.27233969224259    0.54003623413869   -1.80086062870674
H         0.27469022487098    0.14123106978978   -1.47098267941937
