33
 energy: -44.347110794876 gnorm: 0.109457436881 xtb: 6.4.1 (79825abcba525fcdf90b791dcacef51065a7a4e7)
C         0.00495972077801    1.89029740345731    0.42810811081061
C         1.23272134780913    1.16169590154830   -0.05415211775158
N         2.32730192221556    1.57688112471453    0.50772937886149
C         3.46340722797743    0.79005743694926   -0.04697357659297
C         3.30577641317572   -0.64609716143068    0.52970041006826
N         2.74005766464991   -1.44578488767070   -0.62858400023098
C         1.93656963035429   -0.81129477080201   -1.43082572207588
C         2.12566264435654   -1.02656950292585   -2.93609154911415
C         3.49332838219396   -0.37812156822454   -3.40591922427454
N         4.27977373328240    0.67189554031495   -2.69685378093694
C         3.91251121024156    2.07988717837538   -2.49076151991655
C         4.61967364909577    2.59449627062755   -1.21573476522170
C         4.85116465856126    1.26340048340294   -0.49223229579664
C         5.27881880927939    0.32583128546043   -1.66468717296842
N         1.04753998103962    0.20745443427805   -1.05345975093828
H         0.36522270618936    2.65231258260928    1.11078252622023
H        -0.71474579212562    1.23044366192109    0.91642618977289
H        -0.44571962543728    2.51185122171379   -0.36616373702294
H         3.11673607752853    0.67495731969910   -1.04570605798844
H         2.63232821984733   -0.72684767729624    1.39318042081580
H         4.30991101121303   -1.04656421798774    0.70427050260651
H         1.31463934293607   -0.51553513972166   -3.46949701252830
H         2.10704018934401   -2.11103102381780   -3.08587399486136
H         3.33529375558944   -0.02871405680882   -4.43799100443263
H         4.17537804008431   -1.23045799589639   -3.51937197413644
H         2.84011956707438    2.19661413063851   -2.29678092586591
H         4.16299273514389    2.75111501174164   -3.31964576919650
H         3.91961883812511    3.26236224949178   -0.70542685331323
H         5.55556286180653    3.15259829513538   -1.35009038601623
H         5.62140607982336    1.21260491527113    0.28220077916047
H         5.26523256534228   -0.73508436951463   -1.40194578574134
H         6.25641508432652    0.68778346454592   -2.00397154940753
H         0.27114184034032    0.26063048922511   -1.71305767779664
