33
 energy: -44.341870083638 gnorm: 0.122608814698 xtb: 6.4.1 (79825abcba525fcdf90b791dcacef51065a7a4e7)
C        -0.05146133218863    1.76040642181642    0.67664864304163
C         1.31672286017637    1.44707563193034    0.12826050404091
N         2.34654997731139    2.23688188466097    0.08515099096203
C         3.44508970103882    1.38413035684892   -0.44734078124433
C         3.70473757063171    0.30872049456388    0.64628485197086
N         3.34745895065857   -0.99997469324206   -0.03255964723265
C         2.24541169728058   -0.81783967671702   -0.69895384241550
C         2.16002210083892   -1.42856462141563   -2.10168270743520
C         3.59351955978798   -1.22369955884271   -2.74576943122769
N         4.32465863768553    0.07304317007940   -2.83351902466003
C         3.60336148044454    1.24619519896056   -3.34658917834349
C         3.94156365210999    2.49669811033942   -2.50251795731521
C         4.62931408012158    1.91288539758768   -1.26355791613192
C         5.23155759673526    0.56740543679373   -1.77693978948786
N         1.28119952235958    0.15820482573382   -0.40186668795665
H        -0.01105814850145    2.78415922915571    1.03273667539327
H        -0.25704585243303    1.05788296131791    1.48660749131343
H        -0.81618323724094    1.56720421849208   -0.09677369551191
H         2.97610701992113    0.82873855957946   -1.22354351926392
H         3.01041367734811    0.57247339660093    1.45498726526911
H         4.68411293069446    0.10558773083119    1.09203799061098
H         1.22379992024591   -1.03956427066145   -2.52073290065534
H         1.99265661060348   -2.50716543728736   -2.18798125572050
H         3.63173831000627   -1.59371570525925   -3.78204164329420
H         4.32114715909207   -1.89930982955019   -2.27816971817445
H         2.52467550138400    1.05471486109117   -3.31419576698473
H         3.92009200034839    1.38670670249536   -4.38595206005263
H         3.12442911967702    3.17392781559052   -2.23758975125924
H         4.66334793004144    3.04433150935738   -3.12263330411444
H         5.31252874913335    2.57835337175014   -0.72879747828150
H         5.38954492313599   -0.20889378325136   -1.02384007404605
H         6.11321349234655    0.65884398985883   -2.42202863873120
H         0.33070874354716   -0.19857558398020   -0.50169767448087
