33
 energy: -44.344420997523 gnorm: 0.119377195224 xtb: 6.4.1 (79825abcba525fcdf90b791dcacef51065a7a4e7)
C        -0.00087949819104    1.85335819680462    0.42999968915876
C         1.29075514557766    1.25248421631345   -0.06139029622762
N         2.40836136837803    1.68991605150055    0.43439792411487
C         3.42361666964885    0.73663582437031   -0.09289294515923
C         3.34057531840723   -0.68290134802226    0.53794677772236
N         2.84954041640453   -1.45692326982512   -0.67074496990342
C         1.94242551368911   -0.84212312164521   -1.37140598910919
C         2.01940244381308   -0.96940604159235   -2.89646278827122
C         3.49029601742238   -0.48514715121119   -3.23365382651930
N         4.34010417046924    0.62888586284955   -2.72320050725527
C         3.91523723900368    2.03419075797490   -2.65684921968380
C         4.52859197954278    2.58092521677237   -1.34708899008172
C         4.77644751471015    1.35450685926060   -0.46203217695599
C         5.32486853582139    0.47863051841132   -1.63192514011129
N         1.12622002725926    0.23966524742448   -1.00511198601024
H        -0.43889876464254    1.12134654926192    1.09992430025808
H        -0.81528327474738    2.02513076185658   -0.27645498590151
H         0.24908287129701    2.73071879249560    1.05294912171483
H         3.05719593388855    0.58379908051175   -1.07943856962816
H         2.59570314383916   -0.75677456848951    1.34128919601833
H         4.24536361843403   -1.11573684787406    0.97743105821151
H         1.23761643694584   -0.32311897992814   -3.31426655879201
H         1.95397299613171   -1.98877919246946   -3.29071618507747
H         3.34843864114283   -0.28669548550998   -4.30730467489051
H         4.20564184722171   -1.31468570004532   -3.16519365561696
H         2.82242753396938    2.08593612623839   -2.72293143288013
H         4.17538971772683    2.58169373438175   -3.56948172020438
H         3.87959604408366    3.30267824662720   -0.84269558001543
H         5.53536139308018    2.98809317942650   -1.50848144505682
H         5.43597199092517    1.41317610656743    0.40813103734429
H         5.49439774032446   -0.57048229370075   -1.37622646695001
H         6.27329642159399    0.92019394647607   -1.95952861034720
H         0.19954801618871    0.28065659051666   -1.42971756559339
