33
 energy: -44.346917834171 gnorm: 0.114796811093 xtb: 6.4.1 (79825abcba525fcdf90b791dcacef51065a7a4e7)
C        -0.03351374853356    1.89153596176518    0.55462014402597
C         1.30836168912101    1.41715407786170    0.05947787329025
N         2.35368127079735    2.18318115504700    0.14136646124165
C         3.49755199962686    1.34416301876878   -0.31154688746783
C         3.76882956770224    0.25966321168764    0.77021512932228
N         3.33412606789044   -0.99712595812161    0.04036938804086
C         2.28889060494387   -0.78628124058953   -0.70447279063617
C         2.29519230976051   -1.53118777370939   -2.04350197918816
C         3.64652454966482   -1.27523263760556   -2.83097929043350
N         4.27251169319832    0.07691185068097   -2.89140636353690
C         3.43610068410593    1.23277756192938   -3.24380860385886
C         3.81396886824023    2.47780620988838   -2.40851597871435
C         4.59694015120850    1.88466521783035   -1.23208083280081
C         5.21683036543864    0.61128682680549   -1.88844819779883
N         1.24898835458851    0.12372206441433   -0.45723592546970
H         0.03676068856319    2.95768835524035    0.74138602264303
H        -0.26179280721139    1.38088931572336    1.49215212713551
H        -0.78057915283483    1.78542171141390   -0.25218952839445
H         3.06160206124123    0.71569642157208   -1.05037899592059
H         3.32732687633538    0.46508475949430    1.75435343802128
H         4.84038190879574    0.06452642081321    0.88349395320461
H         1.55619911909278   -1.02869278219765   -2.67975992056029
H         2.16394161508261   -2.61639888077726   -1.98082438336103
H         3.43817317405123   -1.51467583688830   -3.88525125697443
H         4.36833167556330   -2.05367953704990   -2.55249131870580
H         2.42243244039091    0.87050435300162   -3.03762346877730
H         3.43710831238376    1.50692724464050   -4.30455260732456
H         2.92442114955004    2.99724816524526   -2.04052034660483
H         4.50630988877481    3.10913391549894   -2.98079839703901
H         5.35607203985938    2.60142780669281   -0.90716730767853
H         5.57876228967694   -0.16029690783994   -1.20403350126750
H         6.10806522072246    0.97041275195808   -2.41622348338033
H         0.32026633297719   -0.01872045115409   -0.85457299099298
