33
 energy: -44.339767032200 gnorm: 0.126244438646 xtb: 6.4.1 (79825abcba525fcdf90b791dcacef51065a7a4e7)
C        -0.03029784120333    1.96104390044884    0.31324301970957
C         1.32817388876552    1.37733474846716    0.02225865928725
N         2.38151500855215    2.12945710666845    0.12704740390745
C         3.53849036395992    1.31929746455504   -0.34472749631620
C         3.86570531569084    0.22344632436489    0.70977763071531
N         3.38770128258847   -1.03177567255561    0.00473093972328
C         2.29331831610058   -0.84666772028730   -0.67337192815595
C         2.24730993582854   -1.53113821934621   -2.04352081725086
C         3.59420511967007   -1.20311906809998   -2.81164136154089
N         4.20156259119566    0.15831819311324   -2.84921177946634
C         3.37206412354717    1.32583435243633   -3.17880936131406
C         3.87187979048525    2.56778171276378   -2.40528139111347
C         4.62550644164442    1.94556110078679   -1.22471021642960
C         5.18079528824593    0.62577303762694   -1.84631161095679
N         1.24931383147962    0.04674470868268   -0.38614791899429
H         0.02411860190809    2.97146371356645    0.70387271763403
H        -0.60608132869088    1.48011461580467    1.10634952970367
H        -0.47369067270765    1.91901233899661   -0.69766990830593
H         3.04740624669972    0.81029722688943   -1.13886265032521
H         3.35792517960515    0.30545748168532    1.67987265400781
H         4.95435852508582    0.11430829627054    0.75514234402981
H         1.26432751294557   -1.39931607799095   -2.51235424808203
H         2.29185829059431   -2.61922615280392   -1.92986136338951
H         3.46852187296955   -1.62871023978106   -3.81926658700942
H         4.25821550224785   -1.93596729743399   -2.33565361038071
H         2.36322695701340    1.02646364952569   -2.87237462143521
H         3.40003959571042    1.42627642319862   -4.26943563457893
H         3.02177727907908    3.13696573902867   -2.01812362162593
H         4.59652340473316    3.19348624555552   -2.94268570474348
H         5.33645839008879    2.53257331541643   -0.63686446991615
H         5.47601233488283   -0.18648955293483   -1.17710608510502
H         6.10397344876509    0.85078990830097   -2.39305400218117
H         0.32648571381530   -0.38808793961326   -0.38596257003891
