33
 energy: -44.348880112674 gnorm: 0.139096634754 xtb: 6.4.1 (79825abcba525fcdf90b791dcacef51065a7a4e7)
C        -0.00822266970520    1.87546729982548    0.64020635580408
C         1.25623105385665    1.30850213460850    0.04814133594492
N         2.25279577511645    2.14072443751184    0.06961300328049
C         3.39957521148895    1.31633849835379   -0.40241128591026
C         3.75699703976903    0.30112373985880    0.72076681451781
N         3.38251208757684   -0.99819841026921    0.03324668682505
C         2.31449533459128   -0.89606818526798   -0.70205744482807
C         2.24473339860590   -1.56072374881481   -2.08093048740918
C         3.58792177431925   -1.13015797167818   -2.80355796511737
N         4.22429535319926    0.21579038427807   -2.88875036320930
C         3.45500688898881    1.37340027671889   -3.36617140703915
C         4.05635962536872    2.53012736547213   -2.53493630263136
C         4.55212134145116    1.88924797850426   -1.23403129080934
C         5.15019552985652    0.55871153051785   -1.78950816554847
N         1.26726903426813   -0.01570350799499   -0.38756758449661
H         0.03675624690654    2.95847764615324    0.67978408280568
H        -0.00283214664874    1.65241511749547    1.70887665576623
H        -0.86843375183742    1.46521239771079    0.08160399069817
H         2.97231237902159    0.73298444185373   -1.18218048964535
H         3.21703878265239    0.48578303759663    1.65884830147810
H         4.83355595420962    0.26673577989995    0.91818324727772
H         1.31175054384286   -1.26940552079727   -2.57903990797851
H         2.25357429828402   -2.64470118202566   -1.92680995228741
H         3.45881880023860   -1.39936152766519   -3.86331953713859
H         4.31231697911168   -1.78061391625767   -2.29690294557611
H         2.37329060128903    1.24910202467581   -3.24080270212914
H         3.75315396878218    1.42818369418633   -4.41899807959075
H         3.24622540997827    3.25033987549865   -2.38826535275295
H         4.96756981293634    2.96949607020679   -2.96163181760002
H         5.28042466423994    2.54281897827205   -0.74616055516797
H         5.35624282423589   -0.27705645147967   -1.11586430523903
H         6.06721406556338    0.82213144234101   -2.32941992453154
H         0.33444064320626   -0.38466627494292   -0.57300994799944
