33
 energy: -44.345930373950 gnorm: 0.115742218288 xtb: 6.4.1 (79825abcba525fcdf90b791dcacef51065a7a4e7)
C        -0.05470960140263    1.80058884571121    0.54840692202445
C         1.21497469149177    1.13785791027115    0.07987389687839
N         2.38254318106911    1.52617254948651    0.49483386759454
C         3.46873643939463    0.72733887192841   -0.13728250957971
C         3.26641174910254   -0.70622251943413    0.43184563521175
N         2.72159249171208   -1.42743362227840   -0.78642668918078
C         1.84929474480002   -0.77878613044277   -1.50065045050440
C         2.03723206290784   -0.68211570591433   -3.01829961181611
C         3.56283520372821   -0.40868801597051   -3.34921454989132
N         4.43892640364173    0.56990239087106   -2.64307642735419
C         3.98049480783674    1.96375995716042   -2.56062766275121
C         4.62010558800332    2.58013143156731   -1.29509271079180
C         4.84545856147188    1.32816197129466   -0.44031296598599
C         5.38293897884952    0.34660353312318   -1.52853736890786
N         1.03283840556188    0.22677499814282   -0.95947155435261
H        -0.76859292654631    1.52320094439009   -0.21966043503702
H         0.14324590888252    2.87396027320936    0.52549550176800
H        -0.35075629369447    1.31801573224853    1.49697865917080
H         3.03529090393052    0.71028864345669   -1.10822521831240
H         2.56931179072549   -0.66991232529059    1.27942103684097
H         4.14816831568811   -1.27418484251448    0.74658206830239
H         1.44588242394634    0.15830319128734   -3.40227615375686
H         1.78893458290055   -1.64741490476865   -3.47149292778466
H         3.53652986345362    0.05452138350463   -4.34770230593384
H         4.08262265416002   -1.37437428981416   -3.39177827429865
H         2.89187623800338    2.07431301237409   -2.49765846110672
H         4.27189242044965    2.44697582327706   -3.49973721913391
H         3.95396947441083    3.29075136608517   -0.79727963753034
H         5.51933852542538    3.17522305493471   -1.50164537862599
H         5.50583307518279    1.30954481920302    0.43098349763284
H         5.25122247877264   -0.67070061743357   -1.15104209591633
H         6.38698724180661    0.63316243722272   -1.86258650069934
H         0.19481578968254    0.47484639730666   -1.48565580831194
