33
 energy: -44.337236768283 gnorm: 0.138326343936 xtb: 6.4.1 (79825abcba525fcdf90b791dcacef51065a7a4e7)
C        -0.00523594958325    1.90672238039359    0.67170162277463
C         1.27021221967130    1.35723642885852    0.08678210150141
N         2.26643378842951    2.18055762758004    0.21280200021833
C         3.41954468171041    1.40525057844113   -0.32269441996531
C         3.77519771287893    0.29810272906379    0.71058916399947
N         3.40888125014507   -0.95677083288663   -0.05899874083580
C         2.27740333954351   -0.88143525867226   -0.69605824809261
C         2.26058875626412   -1.65646908678836   -2.01778607365809
C         3.54281579441297   -1.19790511990988   -2.82855439753561
N         4.22207179153263    0.12653117194850   -2.91958100618456
C         3.45716816981093    1.32147925945190   -3.30274907594714
C         4.07029343695917    2.50254751014560   -2.51550727171180
C         4.57537446215322    1.88667012157311   -1.20613791583829
C         5.13336274659223    0.57751231320125   -1.84748760737265
N         1.29660904989025    0.10995268128309   -0.53536830274772
H        -0.05919501991987    2.99004547284697    0.67107051440137
H        -0.30299690533429    1.50101460057918    1.64050353389382
H        -0.80183834877777    1.47973293466327    0.03655327338651
H         2.83214474639759    0.98773026840334   -1.10470055837018
H         3.16575430618248    0.42472000333073    1.61513194928957
H         4.81500374064838    0.15006411553403    1.02046472836035
H         1.42707090418989   -1.62219536125691   -2.73018315632079
H         2.42679820878148   -2.69336056848414   -1.70783631718634
H         3.25205586164428   -1.39104402013349   -3.87277120881108
H         4.43235521088970   -1.80055128510548   -2.60477352236888
H         2.36544721177906    1.24020192279011   -3.24967520911126
H         3.71013808778072    1.52325007586391   -4.34947332945951
H         3.40602281053756    3.33123995163273   -2.25368816645287
H         4.87507496704179    3.00259148201784   -3.07021497730885
H         5.35414926992942    2.51938172709863   -0.77164458887196
H         5.23026959135270   -0.26084661981797   -1.15284883932817
H         6.13607628722289    0.70375507521889   -2.27227704552357
H         0.37008107180695   -0.29095807917961   -0.68202322755592
