33
 energy: -44.340580219356 gnorm: 0.138322210266 xtb: 6.4.1 (79825abcba525fcdf90b791dcacef51065a7a4e7)
C         0.00605006832273    2.02526635022664    0.65752559969126
C         1.24788565342496    1.33065549102550    0.16134634249979
N         2.29907815623571    2.08353844222017    0.04152216713201
C         3.41473235570138    1.25699138456064   -0.49667654177854
C         3.81405942287783    0.22708672314426    0.59866573219857
N         3.32342154697836   -1.06998307566765   -0.01618821214083
C         2.19265316007929   -0.90251790697450   -0.63673701592014
C         2.24749513164069   -1.49206835736248   -2.05001237615460
C         3.64545275436432   -1.16662528926752   -2.72197492041632
N         4.32830539614678    0.15706622498352   -2.79518075967174
C         3.57158026689232    1.27441142470322   -3.37716275163509
C         3.84473702171432    2.54051964591378   -2.53279918779486
C         4.53150462973058    1.91566295377767   -1.31346974700333
C         5.26328014058450    0.60531880355718   -1.74251209948798
N         1.18903485483736    0.00083416448093   -0.25289576841038
H         0.35968167558745    2.76060609050238    1.37217311421428
H        -0.64867715894568    1.28084539420461    1.11469869692055
H        -0.43363580070148    2.48837763336085   -0.24386947377704
H         2.94557290184481    0.68952083229267   -1.26398487225664
H         3.24766435032024    0.28548949195736    1.53751427959311
H         4.86790108139518    0.05949566539335    0.84456382675843
H         1.46039944765756   -1.04143054764585   -2.66713656259514
H         2.13303469638833   -2.58040404528645   -2.08554564117929
H         3.59036043329759   -1.42005236912870   -3.79200869237775
H         4.34446370170028   -1.88981832638673   -2.28275267526921
H         2.50864129996722    1.00969899383033   -3.34020904406853
H         3.79792146074400    1.44160871639257   -4.43600723221406
H         2.94357489064271    3.13414535136846   -2.35377067517080
H         4.52478171883332    3.21699357131647   -3.06697159875761
H         5.15233667935203    2.68727523269090   -0.85002536635941
H         5.53806792599006   -0.20535149245616   -1.06275846770055
H         6.24584925355267    0.85713077096738   -2.15840441905866
H         0.23798697391839   -0.25324620070148   -0.52055656506796
