33
 energy: -44.323657919409 gnorm: 0.138559062967 xtb: 6.4.1 (79825abcba525fcdf90b791dcacef51065a7a4e7)
C        -0.01481814989371    1.76724853751492    0.81270322071153
C         1.24370344507444    1.49137156076386    0.03113491577222
N         2.33002503068426    2.20272749688485    0.03976034303236
C         3.48894326956282    1.38050325433699   -0.40563609512194
C         3.58150724720713    0.30425376504390    0.71376524643353
N         3.27253655867022   -0.97248181269947   -0.04494704887445
C         2.20489339930192   -0.74941115477790   -0.75356551098128
C         2.37549795096775   -1.63797800692400   -1.99020113305115
C         3.65241224540490   -1.24134031589829   -2.84102473072112
N         4.21571206316607    0.13603195145134   -2.93769429501880
C         3.50757177874243    1.36382226543433   -3.32610713504874
C         4.03584617194730    2.53988967405578   -2.47265175745972
C         4.66966291714654    1.81381772838597   -1.28103278296617
C         5.20939145212602    0.48735402637941   -1.90212994278214
N         1.21304859102630    0.22149115151137   -0.54327673987496
H        -0.01368924958764    2.72669737982718    1.31862570256353
H        -0.22718373584004    0.97736012603698    1.53576248413643
H        -0.84101174557500    1.89520049753227    0.09066358325937
H         3.10719285891177    0.76841535008738   -1.18698781964519
H         2.87003141688057    0.33294089242414    1.54960616891494
H         4.59352656067103    0.33350880755862    1.13101329091663
H         1.47787951155602   -1.64192901289141   -2.62083719299119
H         2.56074768778465   -2.65740141325256   -1.63622820583015
H         3.37667190958030   -1.34149253997569   -3.90223607744584
H         4.56026059560725   -1.80453339483206   -2.58969709224123
H         2.43827321450199    1.18675983635056   -3.16323611041095
H         3.63020652180110    1.64001718852997   -4.37920446551219
H         3.23019476821979    3.12352370348270   -2.01786278493245
H         4.70972517546963    3.25612838517783   -2.96081886195233
H         5.44247547944516    2.35580722303178   -0.72912086447613
H         5.18032241485071   -0.34937962014381   -1.19942698004299
H         6.28448389397162    0.58069996726540   -2.09521159290257
H         0.28979854630944   -0.03346678034357   -0.89441349192627
