33
 energy: -44.344452103202 gnorm: 0.108917390005 xtb: 6.4.1 (79825abcba525fcdf90b791dcacef51065a7a4e7)
C        -0.02263107167980    1.93130592025980    0.28140109458535
C         1.33810592534887    1.35114357673163   -0.00607094069558
N         2.38282997983003    2.12019423195999    0.05145258215996
C         3.57435430302928    1.30785903271730   -0.31990097334936
C         3.74427025483567    0.26199948785405    0.81906643984356
N         3.31392455892264   -1.04024301146841    0.17089362389444
C         2.30559312692551   -0.88447894099313   -0.63580817734780
C         2.33671872167201   -1.63256890524847   -1.97271400539345
C         3.58122647878342   -1.14038762342102   -2.82164885722646
N         4.10764096487763    0.24960110662730   -2.94258338204799
C         3.24522252599574    1.43003465827131   -3.09294067217049
C         3.99103054953325    2.57968635396275   -2.37693380315705
C         4.68680506645191    1.83287435218416   -1.23367986642330
C         5.20867037721837    0.58763262678635   -2.01700876270260
N         1.25834986845770    0.03118290828623   -0.44746359918605
H         0.08339233465792    2.92366919553051    0.70622467579625
H        -0.47797974268676    1.34263693469698    1.08012755008442
H        -0.80205600606777    2.02608110341124   -0.49565953139777
H         3.20269872102491    0.59819483600332   -1.01928952556151
H         3.11870623229712    0.51065428974738    1.68652899721485
H         4.76424312780365    0.11914088400740    1.19106324663414
H         1.38710052755946   -1.50346802642682   -2.50656281597577
H         2.48020703872003   -2.71242682150627   -1.86245817278436
H         3.33089342291903   -1.45122351837436   -3.84778097653529
H         4.44774218439230   -1.71600320426386   -2.47185193649799
H         2.26166466232796    1.44487535950188   -2.60954520855169
H         3.10739898801556    1.44244588087051   -4.17976519221880
H         3.24796359934301    3.30251896199150   -2.02779142628975
H         4.86904338916091    2.89790984953990   -2.95420772977563
H         5.55603255855445    2.32663870831347   -0.79069120815902
H         5.47704788397356   -0.29690942406540   -1.43364050208527
H         6.04909894011094    0.86869479546116   -2.66237814151626
H         0.35231748173001   -0.29656627355433   -0.78269035916945
