33
 energy: -44.338048411794 gnorm: 0.135912505103 xtb: 6.4.1 (79825abcba525fcdf90b791dcacef51065a7a4e7)
C        -0.09515401696701    1.92602706476312    0.54874081338971
C         1.23255828859906    1.37208475041845    0.10023031609296
N         2.31543887007750    2.08419937597603    0.18059606745019
C         3.48826726671647    1.32560843506734   -0.33567470220546
C         3.85417433253203    0.16234266067601    0.63017475144034
N         3.39794557343319   -1.11020746601032   -0.05803485176194
C         2.28200677873356   -0.81209967498598   -0.65601052321121
C         2.29606296135125   -1.52135171545617   -2.01420366353702
C         3.62989258059892   -1.20145162755328   -2.80811477962219
N         4.23912836849447    0.15845988911251   -2.86537280606511
C         3.42179291162299    1.31117928763760   -3.26910167473366
C         4.00154694991863    2.53668866932359   -2.52572661430472
C         4.56968050981273    1.92741107127640   -1.23931105843447
C         5.16126882906432    0.59467187495555   -1.79645020132386
N         1.22011213374007    0.04539457438868   -0.32781522036725
H        -0.19452920665098    2.90101681570634    0.08396078714699
H        -0.10503981996829    2.00995843698704    1.63717792112095
H        -0.96386998969339    1.34696584367425    0.18772910077822
H         2.98378530741407    0.81333478691155   -1.11923654328143
H         3.38772654313165    0.43651076225054    1.58563755367264
H         4.93756301907678    0.15593802067888    0.78943181308929
H         1.49220954177662   -1.10972246150603   -2.63695349971451
H         2.18501557000330   -2.58094445304453   -1.76167625665924
H         3.41458530994291   -1.41217401033711   -3.86711033314579
H         4.42983998689948   -1.94008214312703   -2.67009390313726
H         2.33987003046821    1.32335357486077   -3.09425270896712
H         3.52980118223374    1.44726089441842   -4.35083774055301
H         3.20191652150338    3.21180251958643   -2.20737407154491
H         4.83013082359514    3.00683793856658   -3.07146130755807
H         5.24226268064796    2.61276560999463   -0.71631869287698
H         5.46162337568982   -0.21346876173132   -1.12454580707893
H         6.01931919179948    0.83387413974179   -2.43547258352987
H         0.32074449605183   -0.36396654303394   -0.58129606290633
