33
 energy: -44.339356305535 gnorm: 0.127140885604 xtb: 6.4.1 (79825abcba525fcdf90b791dcacef51065a7a4e7)
C        -0.07193268740375    1.80156769378175    0.51026234669412
C         1.21506110897943    1.20956092158217   -0.00355537210223
N         2.32670767812687    1.62538028901074    0.52325806334394
C         3.37143048059432    0.71782340704227   -0.02666643190603
C         3.32643285673250   -0.75220107300242    0.48022966681264
N         2.93949185227647   -1.42782102429497   -0.82168250323314
C         2.04720450603528   -0.73036575427900   -1.46132456385951
C         2.05351309651313   -0.69761264821752   -2.99325539211763
C         3.56241439920619   -0.43860335933733   -3.40296679255592
N         4.42530259035190    0.58223121188015   -2.74181113179444
C         3.97885133730649    1.97415469175296   -2.59006606379461
C         4.56682841120718    2.54491802889535   -1.27891899200318
C         4.73737273556393    1.31726766802088   -0.37744844673275
C         5.21676552066928    0.36062253064941   -1.51392861256302
N         1.11996251356997    0.19252179547057   -0.95227680655405
H        -0.00769138839946    2.87416841161853    0.65825444996377
H        -0.27505317550648    1.49382512466185    1.53781970002743
H        -0.97555377220416    1.68412449875471   -0.11422529682198
H         3.04929667364444    0.72724063517269   -1.04009458550672
H         2.59729027802191   -0.84532118698088    1.29590766530484
H         4.32633832228838   -1.12909338963373    0.71955396219383
H         1.35732285407691    0.04295081071386   -3.40595531135881
H         1.81289259236931   -1.67699014008346   -3.41958845443205
H         3.45469033699327   -0.18359388558285   -4.46861139548191
H         4.04744871165911   -1.41552235083112   -3.28085349407355
H         2.91005896370513    2.21384948938533   -2.62888308309282
H         4.37939020054294    2.43798639101662   -3.49823217263697
H         3.83545349629603    3.28582955468069   -0.94324546193988
H         5.59997261673958    2.86903365089623   -1.46052307252252
H         5.33586365211749    1.42268256999010    0.53155923086740
H         5.37684016704672   -0.69916522171342   -1.29948588250003
H         6.17342348695185    0.73911105555429   -1.89257056137804
H         0.29366936438526    0.30063752109506   -1.54069997516388
