33
 energy: -44.345253979264 gnorm: 0.125314961601 xtb: 6.4.1 (79825abcba525fcdf90b791dcacef51065a7a4e7)
C        -0.05717817847762    1.93132926349244    0.49083825072330
C         1.27258281237332    1.34253642553328    0.09600610567188
N         2.32687305477782    2.08913112755639    0.22740123910252
C         3.46692922274963    1.32688291968867   -0.35291916986978
C         3.84462635258828    0.26700068716241    0.72129446857707
N         3.33623677411461   -1.00578510285788    0.07112732121357
C         2.26193570251839   -0.85132838827130   -0.64565916164674
C         2.25648907534062   -1.52579866280370   -2.02151700327196
C         3.55374932457695   -1.17124971292912   -2.86005338006747
N         4.26181756785340    0.14059730652583   -2.82128728148545
C         3.50389904080132    1.27997452475298   -3.35717469182288
C         3.85249180800837    2.44746307265610   -2.40530913412749
C         4.61461583833230    1.88853802734747   -1.19881434664006
C         5.24124932896840    0.59799162557412   -1.81395252414160
N         1.20653483158869    0.04040577980311   -0.39753026983920
H         0.19180230252525    2.97999961281635    0.61249406928838
H        -0.31600058320430    1.51168591389451    1.46487519383462
H        -0.83699344608648    1.86739740506737   -0.28897561109871
H         3.01031874104176    0.75301904984044   -1.12303774484292
H         3.29030704452082    0.53808815587870    1.62953041862984
H         4.90856050598698    0.11189410863904    0.92895028875273
H         1.37659345226655   -1.10945485145395   -2.52736069399107
H         2.45783403565671   -2.59838444639742   -1.93286981951043
H         3.36851132011559   -1.31207218363365   -3.93619864534763
H         4.32703644962563   -1.89158770951195   -2.56394386110612
H         2.44671092472278    1.00216567511945   -3.43750541234153
H         3.73687145689338    1.52090911754555   -4.40025248311783
H         3.00756162537984    3.03488319288218   -2.03440960351796
H         4.46088480184605    3.10303088372848   -3.04210324230326
H         5.37223686719797    2.55175312036517   -0.77248730359650
H         5.38872038388533   -0.23340186163690   -1.11983667423339
H         6.16409340556593    0.71662900198575   -2.39369533925672
H         0.39424737710415   -0.10664914053284   -0.99690923923938
