33
 energy: -44.343182462813 gnorm: 0.123207365120 xtb: 6.4.1 (79825abcba525fcdf90b791dcacef51065a7a4e7)
C        -0.08157332483129    1.78540780527332    0.43963520179602
C         1.30639501970731    1.32083032313528    0.08110300506951
N         2.38005601543968    2.05109875753364    0.06860106676649
C         3.54649221249263    1.23805218942150   -0.37400940531579
C         3.76713941692456    0.11959746253682    0.68443956565867
N         3.29411481028375   -1.17169848129900    0.04415568204347
C         2.25014925566699   -0.90164224108307   -0.68314622090948
C         2.15359069011656   -1.48512931357126   -2.09670338912771
C         3.53718766473058   -1.15224672255753   -2.79425693010516
N         4.12341850943403    0.21879108025258   -2.81412564573605
C         3.50287591547500    1.49356025963461   -3.20101925134731
C         4.06162176592210    2.63293641590240   -2.31771890334181
C         4.70474779967851    1.86167101419627   -1.15996310323945
C         5.25794689409357    0.64755567881437   -1.97019099071917
N         1.22706662513760    0.02421119316720   -0.42483228566857
H        -0.22063296243259    1.60448913571604    1.50002746959989
H        -0.89238126976292    1.35529932478927   -0.15149482134879
H        -0.00574780277683    2.87573411435492    0.27917390075603
H         3.08512094300420    0.73237502185844   -1.18784147784897
H         3.20977675386336    0.40687044833436    1.58581181897893
H         4.82308524668226   -0.07437165241662    0.90005323966821
H         1.27974590989407   -1.05415970708290   -2.60078354339834
H         1.95113373494327   -2.56053300014111   -2.13353343906639
H         3.30520070637550   -1.28895483688569   -3.86183627575021
H         4.25952308932302   -1.89737853918309   -2.43711444628436
H         2.41571844200908    1.59582031699861   -3.10663178371907
H         3.72136030741893    1.74497838016540   -4.24475791443051
H         3.35433284082397    3.32206648463100   -1.84721067396822
H         4.84982034527294    3.25942257735364   -2.75552709297496
H         5.47830321126710    2.35832164118397   -0.56789148264272
H         5.53351852067689   -0.25019407925901   -1.41084735612905
H         6.13973952029200    0.98083952312692   -2.52981710367163
H         0.24960723968613   -0.25550168484856   -0.50864785282981
