33
 energy: -44.343697299145 gnorm: 0.120098484740 xtb: 6.4.1 (79825abcba525fcdf90b791dcacef51065a7a4e7)
C         0.04885566870273    1.93858596905480    0.37453134189374
C         1.33879817922693    1.20363170151136    0.11622093850263
N         2.41271081986099    1.91139788278703    0.29503625032976
C         3.55464774652140    1.09971599388581   -0.20961683728381
C         3.66989587229901   -0.10108826299423    0.77258854094137
N         3.12490791400313   -1.23153333257119   -0.07961038556185
C         2.17146296670031   -0.91404580255334   -0.90538694138585
C         2.17763879106805   -1.38308018549839   -2.36411693689575
C         3.51607707614191   -0.93988367716702   -3.08792088530557
N         4.19104423581315    0.37178453779820   -2.86939890711063
C         3.47932106177829    1.64910719980649   -3.01668496450340
C         4.19191261681470    2.66792057892016   -2.09754023464217
C         4.70532168450416    1.78081568112868   -0.95810355989557
C         5.19700770886298    0.56492603843020   -1.80452647695031
N         1.17237845412668    0.02829970501532   -0.61479470717478
H        -0.11194504056251    2.81512465302524   -0.24379217867559
H         0.00800026302051    2.32824957686413    1.39351644995331
H        -0.74702600318735    1.18591574525007    0.23181238918272
H         3.10780419361752    0.67312681558935   -1.07520796801009
H         3.06587184821586    0.11762284508985    1.66307788678609
H         4.72138203540672   -0.30467654483951    1.00076288251843
H         1.29689557741178   -1.10433286291867   -2.95574825797467
H         2.11773637220346   -2.47226982211575   -2.45854151778943
H         3.26795956211997   -1.05042543191656   -4.15490304697779
H         4.27451599809499   -1.71027987587234   -2.89871003647184
H         2.41252482212213    1.49396575697528   -2.81881024289797
H         3.52521813266712    2.04896621968635   -4.03567619268488
H         3.51453161653477    3.41804253643919   -1.67920077975682
H         5.04163065098894    3.23521160137286   -2.49950799476354
H         5.57923161238879    2.08164202506398   -0.37382316694425
H         5.29335971127595   -0.30667228054122   -1.15199884097848
H         6.21074623218432    0.76636448761123   -2.17000493291966
H         0.25842795799064   -0.22984590926552   -0.98728166241118
