33
 energy: -44.343563858001 gnorm: 0.120068490590 xtb: 6.4.1 (79825abcba525fcdf90b791dcacef51065a7a4e7)
C        -0.03290194966776    1.90849056010447    0.21725535958487
C         1.23726879289925    1.12336410197456    0.01458212354034
N         2.38311605388097    1.58209291413623    0.41806467027292
C         3.46963101769892    0.69306418892875   -0.07855925194683
C         3.40793543912431   -0.72350284974212    0.56134064370587
N         2.96289067569606   -1.50581486713009   -0.65975886820345
C         2.02358900235973   -0.85174597470436   -1.27755233851315
C         2.01211383298546   -0.90602444390368   -2.80884159781296
C         3.42203735107433   -0.40797167378698   -3.33400011747411
N         4.24101829782944    0.65955000549063   -2.69098090721656
C         3.89835702270193    2.08592144718284   -2.60241453414509
C         4.57577869585250    2.59703374230505   -1.30995232609200
C         4.80325332986908    1.35448596486568   -0.44208700270053
C         5.27944263664418    0.49249854090988   -1.65320051655767
N         1.04331225437584    0.07027037857079   -0.87808756370389
H        -0.86661374356140    1.22827352510860    0.35411419564691
H        -0.20564478281086    2.49122137140461   -0.68961963624585
H         0.06577783097800    2.57930557233785    1.08936677107465
H         3.12710816158384    0.47427655134566   -1.06126243841243
H         2.64395984310449   -0.72323811647174    1.35000538093092
H         4.39932482819598   -1.05959180525141    0.88278451736263
H         1.24672165397527   -0.25529984309957   -3.24948727930440
H         1.78065596392945   -1.93164338040274   -3.11440898149514
H         3.21696138128239    0.02509031830030   -4.32527902714451
H         4.05041416785741   -1.30613454877522   -3.27934960623605
H         2.81652474556227    2.26079303139239   -2.58407491722866
H         4.30263068513604    2.61997879222860   -3.46941076188935
H         4.03970335009127    3.37527013744559   -0.75903744509436
H         5.57602820552442    2.95235052364388   -1.59043196434240
H         5.59335256253291    1.56155465950671    0.28486855425673
H         5.46809226984866   -0.54769047981335   -1.37539164844811
H         6.29115275476217    0.81909945732097   -1.92076774449746
H         0.10181411402398   -0.01543669705327   -1.26139781271431
