33
 energy: -44.345891825822 gnorm: 0.122717314118 xtb: 6.4.1 (79825abcba525fcdf90b791dcacef51065a7a4e7)
C        -0.02653292600029    1.85673306082012    0.55439638290501
C         1.28251684810481    1.34733846680972    0.00874122375847
N         2.29416211593018    2.16144070514526    0.00597881129952
C         3.48731803915495    1.37290685829452   -0.40888922071364
C         3.70474759472053    0.33980577047830    0.73363733873345
N         3.38867461210663   -0.97529853449302    0.04678983411249
C         2.28532899138520   -0.85619324170637   -0.63159420414964
C         2.25347102795327   -1.61965700492575   -1.95976315642451
C         3.55795667831382   -1.22714878807388   -2.76969331318907
N         4.15207822498287    0.13266876838780   -2.91707664318284
C         3.40774189429392    1.36233218960999   -3.22316085742272
C         4.05185203858387    2.51053019897579   -2.41238473647161
C         4.71205993520147    1.83799464943053   -1.20379821342636
C         5.21222303522477    0.58832944837587   -1.99420840986177
N         1.21008688839242    0.01127100484269   -0.38261837001340
H         0.16454914827008    2.90240495519259    0.77017137170901
H        -0.21536249397660    1.19378745075552    1.40096832923449
H        -0.87786398751654    1.70210862344661   -0.13236085310760
H         3.06595447753836    0.86996331495404   -1.24578588979416
H         3.06196904735381    0.57865765941359    1.59121320420584
H         4.76268851591494    0.24230694803910    0.99894821903044
H         1.47122404819372   -1.17392144519198   -2.58653727007447
H         2.30313826791146   -2.71344103427473   -1.96259664199206
H         3.33649378398120   -1.54788762537774   -3.79940856842494
H         4.36807472508822   -1.84729058465215   -2.36512742721477
H         2.32347717450032    1.34555998939039   -3.06389315375779
H         3.47655614252261    1.62807167480141   -4.28381349979107
H         3.25860388291636    3.24175406578544   -2.23181648762755
H         4.85366927358269    3.06471376460008   -2.91774364160689
H         5.46557513067582    2.40110069916829   -0.64637103797064
H         5.46567660044214   -0.23668198190658   -1.32347963811058
H         6.13913042272587    0.92675924510972   -2.47183348718550
H         0.27630545119089   -0.30707655488275   -0.64223011065918
