33
 energy: -44.342390078079 gnorm: 0.122428035936 xtb: 6.4.1 (79825abcba525fcdf90b791dcacef51065a7a4e7)
C        -0.08540788334595    1.89629998905065    0.58744346971806
C         1.24451363707759    1.39179070778587    0.08983636295686
N         2.27739958997788    2.17871138221719    0.09977030735129
C         3.46678983970221    1.40272321437811   -0.34824236507190
C         3.85678624473410    0.29008315275769    0.66658535277974
N         3.40499786955624   -0.95717383155119   -0.06921232858436
C         2.29988682049656   -0.80526171207807   -0.73810305567884
C         2.23815665395215   -1.67458985327189   -1.99841355949942
C         3.48732420616392   -1.21246174549363   -2.85733754076381
N         4.15635834183701    0.11785358082139   -2.77696030821344
C         3.54257956231038    1.32357119485810   -3.35082169655405
C         4.00097168131264    2.50472409915763   -2.46462254049324
C         4.63392963880326    1.90972970581086   -1.20200390988478
C         5.17104984245259    0.57360999283994   -1.80438296104881
N         1.27096311090516    0.07645493055993   -0.37133268852359
H        -0.00655803135480    2.96679942602710    0.74337476208946
H        -0.42237268867622    1.27374505015282    1.41853769090959
H        -0.73119346632006    1.64081556174416   -0.27162433303495
H         3.03060184384228    0.79425761477427   -1.10349406959625
H         3.36142027433468    0.43704423171120    1.63543304205288
H         4.92324409289380    0.23279438743250    0.90849551328007
H         1.36216349315244   -1.52052932901301   -2.64054877906603
H         2.37798480200711   -2.69483424630086   -1.62640839791513
H         3.21491701020232   -1.29847692821290   -3.92064766858616
H         4.30834294114860   -1.88974101808669   -2.58945383568031
H         2.45989117649234    1.15416686876279   -3.33170294754169
H         3.73984830034555    1.50828452597674   -4.41256692530905
H         3.17868962145205    3.19412267298224   -2.25221328632432
H         4.69846149099753    3.21941612779427   -2.92084747761961
H         5.36986063194935    2.46924485810720   -0.61809724245734
H         5.21588474233297   -0.17676144513226   -1.01085149245068
H         6.17941585362543    0.69170429510773   -2.21798841071029
H         0.42914158408315   -0.29345720901184   -0.81313890099006
