33
 energy: -44.346058197139 gnorm: 0.121464972922 xtb: 6.4.1 (79825abcba525fcdf90b791dcacef51065a7a4e7)
C        -0.13802192716827    1.72427287197712    0.78214494968890
C         1.13969084516699    1.16331491813584    0.21327769073428
N         2.31526034440802    1.60549429025728    0.54298969051204
C         3.36438810206065    0.84531009630625   -0.19115819224109
C         3.33619560514429   -0.60744054762718    0.36441463291390
N         2.71973138556504   -1.38037556660348   -0.78610884961631
C         1.86957381690535   -0.65033237214270   -1.44643572933041
C         2.10487285437766   -0.83178385917754   -2.94964374380877
C         3.64468346279396   -0.59775772207129   -3.24281165569325
N         4.49546029619374    0.50682064117171   -2.71376396046122
C         4.16283746646395    1.93275655937650   -2.83972054153257
C         4.41407176777549    2.58766092530888   -1.46183227919663
C         4.74710835965556    1.37827560527821   -0.58130193139020
C         5.41824878290498    0.37172867334423   -1.56771377797617
N         1.01414746450486    0.30808935749032   -0.88048316261609
H        -0.98107591626239    1.16658768257856    0.38876458157119
H        -0.19815806211151    2.77481468172261    0.49131322323524
H        -0.13051702998641    1.61019864125037    1.88088948013557
H         2.96822525257153    0.72592428695784   -1.17079971755894
H         2.70418258723488   -0.51465351727472    1.25749971731789
H         4.32030965495475   -1.01268702308855    0.62215424493405
H         1.47741018576233   -0.12603914290010   -3.50790112660784
H         1.94585613678151   -1.88942582936296   -3.18404836094148
H         3.75941888019346   -0.49683182946228   -4.33317052695748
H         4.10569468820082   -1.55228785915499   -2.95841488753778
H         3.12926094627062    2.09913121524209   -3.16424564524127
H         4.78752658287162    2.45611779860379   -3.57197283703778
H         3.64656865279952    3.24646357276287   -1.04535429401797
H         5.27919669191180    3.25111776443845   -1.59145409224219
H         5.32471690554071    1.63042862713314    0.31222247037103
H         5.45927301345944   -0.64313625915398   -1.16382538290118
H         6.35503215175464    0.79699301077392   -1.94640218967739
H         0.09392490972297    0.35527372189756   -1.31826768835145
