33
 energy: -44.346195038354 gnorm: 0.130469148110 xtb: 6.4.1 (79825abcba525fcdf90b791dcacef51065a7a4e7)
C        -0.07959564662206    1.89080597217099    0.51407826618970
C         1.27376599356605    1.32188088755127    0.17412203782794
N         2.32496219570842    2.08419922149165    0.16680437644370
C         3.44931505863607    1.29127029265608   -0.40294690986630
C         3.83411591254483    0.25909244562861    0.69545083669218
N         3.38233065289687   -1.03779825355129    0.05114845620150
C         2.29621693915652   -0.86983270442313   -0.64448587440531
C         2.25626166693032   -1.55707263599568   -2.01343783484091
C         3.53731237808473   -1.13851407128399   -2.84737438174730
N         4.15903391657413    0.21566129311553   -2.90634432081241
C         3.46815164661133    1.43339943865839   -3.35310123965239
C         3.98318463234102    2.56365645948717   -2.43231105929217
C         4.61197784625247    1.84376397764116   -1.23429861166942
C         5.19232290182664    0.56093532699038   -1.90818643408713
N         1.26392591862927   -0.01011155766418   -0.23719780039186
H        -0.42000335159030    2.51813578647146   -0.30267188724508
H         0.03022199931183    2.61501608970927    1.32358264124019
H        -0.66726174241040    1.01487180489701    0.84225001126279
H         3.01724767685923    0.69267447428491   -1.16838555290848
H         3.27055969649150    0.44660056274332    1.61897449785020
H         4.87191153092974   -0.05004198548135    0.85839572605922
H         1.32521137131734   -1.28752045677039   -2.52717247662439
H         2.34374286057669   -2.64565324106863   -1.93483961261036
H         3.43678660127257   -1.39728970742780   -3.91281441016197
H         4.36198896458675   -1.70320493749829   -2.39397234322291
H         2.37522595555194    1.48164252925643   -3.28629160013009
H         3.74356780322825    1.68545296599877   -4.38312641514921
H         3.16479321740172    3.21834474830980   -2.11901469919072
H         4.77679378713642    3.04305694363238   -3.02033963987037
H         5.28246283593143    2.44484465216770   -0.61401598575686
H         5.30499225412740   -0.31003175166620   -1.25743177838880
H         6.06564893347020    0.76299895056944   -2.53928839406195
H         0.43469346021840   -0.24489126491497   -0.78303956935501
