33
 energy: -44.340052646422 gnorm: 0.131452079966 xtb: 6.4.1 (79825abcba525fcdf90b791dcacef51065a7a4e7)
C        -0.06135946252620    1.85877344461766    0.51090835867708
C         1.27993146355213    1.36750868291966    0.03087577016221
N         2.30852281042672    2.15952820006830    0.00085659372395
C         3.47272190076531    1.30286378537270   -0.35731755358423
C         3.81481763243277    0.28253318911602    0.76599735285289
N         3.42146495282680   -0.99954730948883    0.05698098432599
C         2.30078609172635   -0.87935764699150   -0.59216911651442
C         2.17620442127349   -1.61543178673235   -1.93030172572897
C         3.50941297435193   -1.18067203418089   -2.66872659030224
N         4.13759489811056    0.16768352715807   -2.77422914975074
C         3.40706891460726    1.32345849369543   -3.31303548106837
C         3.95438075439422    2.48478861402754   -2.45143431774859
C         4.61324740198243    1.85265780269611   -1.22051381346215
C         5.28120865036832    0.66471137447240   -1.98155623634684
N         1.26317826896947    0.05237653562302   -0.43132705005369
H         0.16934230592712    2.72503000671257    1.12154505600174
H        -0.47898713479576    0.96055309977633    0.96984722555013
H        -0.69315019379338    2.30836990720182   -0.27586497754812
H         3.17130475047971    0.69729255529753   -1.17788240684186
H         3.28850303994118    0.54095836682551    1.69436162507763
H         4.87264715961141    0.08569803458338    0.96943649335333
H         1.28410911628654   -1.27433607436397   -2.46998310438123
H         2.23894717871575   -2.70826532100371   -1.95513267283797
H         3.28703705566142   -1.36263111007485   -3.73158715008412
H         4.35886183362268   -1.80641712693301   -2.36636857727800
H         2.34137914740831    1.09729753060668   -3.19289376826814
H         3.61031884883412    1.49023879136372   -4.37661937436625
H         3.21944191592644    3.25678738608479   -2.20563222260279
H         4.73550917474646    3.09441241655024   -2.92431393750962
H         5.31630301697541    2.54682261134697   -0.75206248559727
H         5.73205103213629   -0.12510616297473   -1.37518254392300
H         6.10495486225341    0.95011212884761   -2.64624137364929
H         0.38225703669574   -0.22731781057431   -0.86311409622973
