33
 energy: -44.340520567178 gnorm: 0.111299166156 xtb: 6.4.1 (79825abcba525fcdf90b791dcacef51065a7a4e7)
C        -0.06542641994311    1.82996158351711    0.35117904263164
C         1.34488900098088    1.38759999829138    0.05764821464520
N         2.37620930144528    2.17494257102166    0.10928477920501
C         3.52972942420771    1.34143566661132   -0.32909830666467
C         3.91259300911709    0.27508994399200    0.73685791659627
N         3.39036400035691   -1.03259045937103    0.17257982176845
C         2.34856095750925   -0.89508001964996   -0.59390554136252
C         2.15972847049063   -1.61806511832263   -1.93164970162742
C         3.40792897736197   -1.14185174310447   -2.78426255554120
N         4.09240401017164    0.18084261930629   -2.86028613703917
C         3.44883761351924    1.40509135293434   -3.35710961911848
C         3.91351768910683    2.54910736791523   -2.42657523233493
C         4.63061658393440    1.86297521335821   -1.25873459670405
C         5.18660214812758    0.57894796079469   -1.95063674676927
N         1.34973899085997    0.07370822996671   -0.40834489590967
H         0.11106374428133    2.67706484063288    1.00521895784244
H        -0.55213883059897    0.97671280111763    0.82753509318171
H        -0.64979090874906    2.04937378270154   -0.56024030294553
H         3.18071258316597    0.79417456245184   -1.17146878350615
H         3.44497459181692    0.46382732432163    1.71223582489642
H         4.97726299965796    0.05650070557652    0.87039228199828
H         1.25114441752422   -1.37804275765334   -2.49760074882682
H         2.35476982839298   -2.69489857963154   -1.89662209673228
H         3.18252940540850   -1.47233617153756   -3.81003435818451
H         4.17943994316973   -1.74431955328809   -2.28793199627074
H         2.35632571951835    1.31747472971475   -3.35279940100932
H         3.77447450682822    1.63350285524561   -4.37795519929229
H         3.12278159337048    3.09051493421620   -1.89917581426206
H         4.54057884832082    3.29509621065006   -2.93225583448605
H         5.31095397995640    2.50019486239491   -0.68716589948007
H         5.34883618551775   -0.26368473947392   -1.27357699863829
H         6.13097773252319    0.82320199176035   -2.45094911642875
H         0.39530361563159   -0.27434302025396   -0.50110610174994
