33
 energy: -44.342042788819 gnorm: 0.116644883688 xtb: 6.4.1 (79825abcba525fcdf90b791dcacef51065a7a4e7)
C        -0.05890712909422    1.78097063855395    0.67570866965211
C         1.16958250941566    1.17066449624038    0.05187109579993
N         2.30294585852532    1.63595434850898    0.48220713344768
C         3.35408327874527    0.79517737968406   -0.15475941682860
C         3.26336076489768   -0.65623204998413    0.39761771781081
N         2.73244792747406   -1.45515481829084   -0.77754819533118
C         1.87725615453606   -0.76646764853784   -1.47477093422968
C         2.14010910074866   -0.59467921046015   -2.97454480611568
C         3.70454925263082   -0.58215548878476   -3.22772959019369
N         4.62240889652152    0.50969789699131   -2.79276302688509
C         4.06122001614290    1.86720022088763   -2.74747792642245
C         4.48253780798244    2.60824644384984   -1.45754138446101
C         4.70573434390135    1.42161332668618   -0.51364251946744
C         5.37164317128364    0.43304383132538   -1.52154643923318
N         0.99848823971115    0.16257303463900   -0.89573801962721
H        -0.42358027383619    1.16819981258889    1.49303744018950
H        -0.90776151214362    1.89533427734813   -0.00119954212496
H         0.24999314497629    2.73848025560673    1.13184982123119
H         2.96757677152454    0.58899004061668   -1.12377695686219
H         2.61345818666432   -0.70260702907730    1.28143152773297
H         4.22303817887573   -1.05553986252029    0.74215712897408
H         1.67927055431653    0.33287987185694   -3.33606699519809
H         1.82502557575755   -1.43822292562659   -3.59743704556779
H         4.00322299427675   -0.57373549854522   -4.28742568855819
H         4.16068083883167   -1.52709778716853   -2.90590870610120
H         2.96704309252942    1.83394550979925   -2.80177783359649
H         4.32912701621294    2.44629135533425   -3.63810478567154
H         3.60557504195130    3.14134213160232   -1.07901639341836
H         5.38656710882214    3.22228169829125   -1.56294373141468
H         5.15592787748742    1.56514473800371    0.47242195724949
H         5.36335711924546   -0.60119111028219   -1.16792364043295
H         6.38279314243114    0.78197991513051   -1.76162370934871
H         0.05184360131962    0.23161786323225   -1.26962027754366
