33
 energy: -44.351106099929 gnorm: 0.116812753811 xtb: 6.4.1 (79825abcba525fcdf90b791dcacef51065a7a4e7)
C         0.06230161866754    1.99070239351100    0.44042330127415
C         1.22733633206916    1.11300045805014    0.06204897583790
N         2.38854457873874    1.52314145141053    0.47384504505478
C         3.49529281520950    0.74114354545715   -0.14349584664810
C         3.33658044482510   -0.67566307507321    0.47892666358919
N         2.82848888710450   -1.51667825980495   -0.67679708467040
C         1.90571069466561   -0.86922029337963   -1.32567390152924
C         2.10228224189908   -0.91177707510901   -2.84471082083243
C         3.59203776674157   -0.54631965490301   -3.24321014252896
N         4.31955275547340    0.65722499856172   -2.74721796026268
C         3.86489607914453    2.05287726421497   -2.67484184694328
C         4.34404906991266    2.60336126947084   -1.31176656240975
C         4.83363217483878    1.38230481485439   -0.52551632891214
C         5.33324659500440    0.46919236164880   -1.68878138954224
N         1.00233527542445    0.10675069578895   -0.87620505524217
H        -0.80456534905047    1.75738128670971   -0.16834909239957
H         0.33770488236899    3.02463005769844    0.22366498374770
H        -0.20577393886227    1.89060231301270    1.50739296419712
H         3.07681291711960    0.67834365821849   -1.11911167223482
H         2.64834832646114   -0.65103576262839    1.33413476456704
H         4.29661653227037   -1.12627850284144    0.75171104816097
H         1.47886412294291   -0.12248565323028   -3.28266654397540
H         1.89804199644732   -1.90506439005009   -3.25763284895046
H         3.56564527010235   -0.42780931428406   -4.33750966895479
H         4.15164790380268   -1.44918257373379   -2.96713824048811
H         2.78849261152150    2.12843916076545   -2.86699663776555
H         4.36451966215460    2.60453746095908   -3.47882207334287
H         3.62240388920675    3.17601125422771   -0.72199025062530
H         5.14351617082756    3.34123607569900   -1.45945220382387
H         5.66403287629677    1.49542041422171    0.17679283467975
H         5.43253742662199   -0.57237627886336   -1.37249710006467
H         6.34110366749841    0.79047847336268   -1.97656099445556
H         0.16553917242998    0.08827731706547   -1.45940503388659
