33
 energy: -44.340910118056 gnorm: 0.141973328284 xtb: 6.4.1 (79825abcba525fcdf90b791dcacef51065a7a4e7)
C         0.00296185612798    1.91718761023688    0.57221807765065
C         1.31965655760472    1.32886419782000    0.13515478161358
N         2.38908060608459    2.06313329392520    0.19326948288896
C         3.50614120765454    1.25914633930509   -0.37532769941448
C         3.75910605184508    0.19411734093351    0.72996068820807
N         3.28113287854391   -1.08199205410421    0.06344181508679
C         2.27233561170559   -0.81206785033888   -0.71194938321210
C         2.28702668639157   -1.46302129525162   -2.09902124954425
C         3.62836763381587   -1.23467418195022   -2.91166779588854
N         4.11414608182257    0.17107022312561   -2.80346424866631
C         3.51247166708595    1.38247979494187   -3.37815633377640
C         3.88540289334433    2.49895427393137   -2.37565870223502
C         4.64421353757257    1.85855728758523   -1.20820077186225
C         5.22356475070112    0.59973316058299   -1.92673296325577
N         1.20603629193326    0.03986118682653   -0.38354199213523
H        -0.77196481358594    1.22186650828560    0.26805014245830
H        -0.13222193552445    2.89341451541983    0.10259705007868
H         0.03311310469032    1.93007781542153    1.67640716509631
H         3.02493458505430    0.80792766927980   -1.20943643840374
H         3.10835745914498    0.30430722482224    1.60747724596024
H         4.77178670783549   -0.01318751129707    1.09139873012806
H         1.54913609117568   -0.90035678186512   -2.68413869618098
H         1.97719047155182   -2.51314064439508   -2.10846731469625
H         3.36905986711337   -1.41088844816561   -3.96710170116743
H         4.44430059596034   -1.81193748723813   -2.45827930314795
H         2.42766889703528    1.24352371611505   -3.30624214422761
H         3.81401726384084    1.55882348712383   -4.41657342468313
H         3.03519823977613    3.09192943246758   -2.02627584646591
H         4.52080106521571    3.27989269748835   -2.81363389151917
H         5.38788977415589    2.47331928081506   -0.69379628689210
H         5.51364629793050   -0.13931381385344   -1.17545277694549
H         6.16033317675892    0.94117759629263   -2.38247231389419
H         0.31982719944556   -0.25224125816395   -0.79585351675284
