33
 energy: -44.346821762002 gnorm: 0.126003273998 xtb: 6.4.1 (79825abcba525fcdf90b791dcacef51065a7a4e7)
C        -0.13258050263794    1.70148273461241    0.62961727215504
C         1.15170883299920    1.15292609513919    0.06347223208373
N         2.27493646082897    1.68090849111647    0.44529747570617
C         3.40727856636185    0.87895500972977   -0.09525236925659
C         3.31742335779558   -0.57023687281474    0.46305698348972
N         2.97863912638372   -1.33804233171010   -0.80061266362147
C         1.97112798176454   -0.81888598177253   -1.43870397109351
C         2.11454833341667   -0.71456508865102   -2.96070015162092
C         3.65083762640266   -0.54978158676860   -3.31339545788401
N         4.46857191175152    0.57685239403533   -2.77878104864833
C         4.01100557001849    1.97339779987543   -2.78827989014660
C         4.53780479764812    2.53921688995856   -1.44927809861796
C         4.80092285909257    1.41065525256133   -0.44629383608115
C         5.19834951949875    0.34473937838440   -1.51514832943264
N         1.09145484162990    0.10754591814305   -0.85687249789392
H        -0.60837572481427    0.95396853519189    1.25519087670991
H        -0.87951908853138    1.98899087412089   -0.11285114470787
H         0.18598713376923    2.58434704043739    1.21217548830463
H         3.10807921251791    0.79675696571383   -1.11241446098412
H         2.51252315451734   -0.62040649523148    1.20822107465258
H         4.21951723169285   -1.06684413839436    0.83553884863503
H         1.45891033094183    0.11170071395655   -3.26212999129392
H         1.71195329273022   -1.58470933468563   -3.48947666180918
H         3.67296491166533   -0.55905081804751   -4.41414846673836
H         4.11128388153105   -1.49656216503352   -3.00333669171164
H         2.93421602102052    2.17298163095999   -2.74391712270169
H         4.39127812959196    2.56318001992731   -3.62963987075878
H         3.94012683078383    3.32225439978144   -0.97370562381615
H         5.48648400201319    3.04828764808411   -1.66438889813018
H         5.46341136673578    1.58743484602509    0.40544355535310
H         4.98420024217791   -0.63932925721821   -1.09028521498512
H         6.27687419795031    0.43838778391920   -1.68786846410218
H         0.24073145164713    0.22551650201379   -1.40736670001565
