33
 energy: -44.345459261337 gnorm: 0.127148282747 xtb: 6.4.1 (79825abcba525fcdf90b791dcacef51065a7a4e7)
C         0.04330832687663    1.99039633930439    0.72671754621164
C         1.25714640561582    1.35052637102630    0.10382328335426
N         2.30228249766341    2.11856436878879    0.04054269834478
C         3.45791679089658    1.29187644793669   -0.40512381463199
C         3.74927252979495    0.17496586208664    0.63773906627115
N         3.28139972570373   -1.08800466104508   -0.06023045909312
C         2.13783024472868   -0.92640156757083   -0.65847441918919
C         2.27591101782551   -1.49709226050625   -2.07380846710783
C         3.70506015831934   -1.21555685635512   -2.69831061088471
N         4.32115051668784    0.13739309677146   -2.81563559519597
C         3.49489444706424    1.25998466444859   -3.28134509587653
C         3.82501178790147    2.53198751270777   -2.46671280762258
C         4.55534243146297    1.93830767097133   -1.25715862726674
C         5.29772507936596    0.70658391526378   -1.86403515740751
N         1.16543603540840    0.04915503679725   -0.38760989142834
H         0.33163035841612    2.98951908405542    1.03514105836295
H        -0.36425456711204    1.34711116070855    1.50896700005048
H        -0.67904917741849    2.10360759803007   -0.10134745648446
H         2.88631773895183    0.77524372778425   -1.13810447868844
H         3.11768712213341    0.35782883369199    1.51712058837889
H         4.80783304685253    0.01698877044771    0.86931572104341
H         1.60983576199589   -1.09120907924973   -2.84519612172093
H         2.27662044356652   -2.58941667613130   -2.14907629451521
H         3.70201942085779   -1.57555074002344   -3.73880466665818
H         4.47490862531171   -1.84776971595119   -2.23767963768813
H         2.44067652849409    0.97778999741302   -3.18001273884774
H         3.64744386778166    1.42186651758991   -4.35412645530041
H         2.91457839614863    3.07459842863700   -2.19612029706724
H         4.57119100725824    3.05990734263488   -3.07493575494801
H         5.22391027778136    2.61275535925138   -0.71518447047112
H         5.60420651682956   -0.01623224164412   -1.10353164715440
H         6.15015998752219    1.00407146484712   -2.48586603164768
H         0.28380639680180   -0.23269001362190   -0.81654316885790
