33
 energy: -44.348330796140 gnorm: 0.119400916240 xtb: 6.4.1 (79825abcba525fcdf90b791dcacef51065a7a4e7)
C        -0.08692654748260    1.86892874522325    0.55982126930002
C         1.25567627318089    1.35094954605845    0.11266479500255
N         2.27912425597489    2.13834133021415   -0.02431926078223
C         3.46829946249245    1.31926208883422   -0.38831608034958
C         3.73891416210219    0.31107269148864    0.76505386079450
N         3.37650199455427   -1.01686007253627    0.12754860717635
C         2.32581232664836   -0.83827447318096   -0.61805244178763
C         2.28365412650969   -1.51597795311887   -1.99168458355165
C         3.56714189154200   -1.15628740353530   -2.84901427715352
N         4.27717464139851    0.15147669861200   -2.94603268987188
C         3.49018245935132    1.33542988731825   -3.31844965546514
C         4.02155584781546    2.50723442983059   -2.46106357066271
C         4.63822357502746    1.86703698288617   -1.21257326089809
C         5.22579651398507    0.59719904977783   -1.90455894112071
N         1.26073088968382    0.02077322617945   -0.30457625009372
H         0.03607968461277    2.77225264394122    1.14750852246654
H        -0.58526514889051    1.04929263964589    1.08106289527325
H        -0.72930588542447    2.07659937110082   -0.31455307376437
H         3.06193809474921    0.77154897348521   -1.20426722653234
H         3.12232758723834    0.35880591533021    1.67235391253356
H         4.79232878011034    0.26227284644665    1.06013196886805
H         1.35628588956330   -1.11085490452183   -2.41512263023038
H         2.24266279454594   -2.60965843843330   -2.02363864857118
H         3.21016839896319   -1.55039263261096   -3.81311163128561
H         4.34307940554802   -1.80458275041934   -2.42219491292637
H         2.40740453342066    1.17012191400390   -3.35772720679350
H         3.60291075986188    1.67480300752639   -4.35404374409146
H         3.16844190985986    3.16864845953715   -2.28424739227103
H         4.85332459936841    2.96398172549802   -3.01329592812977
H         5.41573893069081    2.47534415038658   -0.74243403950811
H         5.35941728304302   -0.27930317157607   -1.26530234236309
H         6.18469615945805    0.85890146760656   -2.36698845839247
H         0.33858228196509   -0.25076800579648   -0.64604147984286
