33
 energy: -44.331511166621 gnorm: 0.144637517559 xtb: 6.4.1 (79825abcba525fcdf90b791dcacef51065a7a4e7)
C         0.01528397734127    1.87189665104279    0.79948765847500
C         1.20123020600185    1.33819748027519    0.03821869962033
N         2.30323180487637    2.01839971558498    0.13368398700917
C         3.45995708651025    1.28449200053805   -0.45017236728769
C         3.87298847757095    0.23030065362708    0.61661067643723
N         3.25854300448620   -1.00059227086988   -0.02254525659175
C         2.16585304523746   -0.82454085468527   -0.70577074299229
C         2.23659235043667   -1.45606494430728   -2.10007985279602
C         3.67510769889772   -1.22853473948436   -2.72508862238073
N         4.31757068693721    0.11287121380274   -2.83315075286330
C         3.51482361118162    1.24334559365220   -3.32040947305435
C         4.00185412317953    2.51602726585238   -2.58987740379837
C         4.55163430620736    1.99469837958487   -1.25765450680425
C         5.17054289864979    0.64993601960819   -1.75277153612410
N         1.12954355535335    0.11978116432591   -0.63543357328258
H         0.07670612676569    2.91841663720034    1.07791922743235
H        -0.11706020475053    1.19579152857126    1.64636688182626
H        -0.81169186661729    1.82381454018065    0.06866082478147
H         2.99297234858736    0.75350454781444   -1.24444754949577
H         3.33532880282438    0.49025770785864    1.53802005844357
H         4.83266838866679   -0.10494676261174    1.02374517370747
H         1.51453221908742   -0.84796296988448   -2.65889777905445
H         1.94065180028136   -2.51000837011516   -2.12154643709488
H         3.71628551238962   -1.63874802684169   -3.74600104002864
H         4.42634623056599   -1.74444599977243   -2.11351941747052
H         2.46087481026224    1.09601459306564   -3.05818248189080
H         3.58860753730300    1.37501522061310   -4.40556197052836
H         3.28929199425700    3.32322284555585   -2.39693602157793
H         4.88178136055258    2.95317315264862   -3.07982582484810
H         5.21142706468998    2.71082179023410   -0.76022169705481
H         5.32948079592052   -0.12356507982430   -0.99699746342964
H         6.15003100266841    0.85021207019086   -2.20256071582779
H         0.19669569198366   -0.29149969871637   -0.67195905383776
