33
 energy: -44.343467276649 gnorm: 0.121354002172 xtb: 6.4.1 (79825abcba525fcdf90b791dcacef51065a7a4e7)
C        -0.12972358449519    1.75132555248408    0.65021406262177
C         1.13576763418371    1.06933250889430    0.19827249218506
N         2.29175046792511    1.51133563554273    0.59137956135312
C         3.37936216503683    0.81786243292007   -0.15274266488886
C         3.31914802006855   -0.60405060546046    0.47533215719747
N         2.76415374727631   -1.37081831294680   -0.71008321059919
C         1.90650385172355   -0.71216532777452   -1.43283865990894
C         2.11926341476920   -0.71110982055143   -2.95028943299343
C         3.62719719835844   -0.47321833662910   -3.37605427265653
N         4.59278181418989    0.50772176105244   -2.80228697480310
C         4.12305046812068    1.90020120052473   -2.79005074225387
C         4.56084434733444    2.58911629863614   -1.47691443086992
C         4.74620923747404    1.40101823054582   -0.52669195578727
C         5.34757987588731    0.37613179396649   -1.53888544990201
N         0.96275783847381    0.11329205547046   -0.80149696384226
H        -0.65075695219112    1.16514849272000    1.39949478122917
H        -0.82779269305093    1.96573704601164   -0.16130597489307
H         0.14897605710999    2.74494211209981    1.04437322006992
H         3.00506715404259    0.73357270589952   -1.14455614473037
H         2.61859711348991   -0.51233500649858    1.31584838524937
H         4.23934095388521   -1.07819999707424    0.83249065601753
H         1.57551151501162    0.17009737181140   -3.31256566777900
H         1.83463363242189   -1.52559362673652   -3.62441136082836
H         3.59326814219770   -0.26445015877610   -4.45656220135107
H         4.12051983162701   -1.42825351812799   -3.15451142365652
H         3.04678440719868    2.09328034812214   -2.86521257672010
H         4.47812633467011    2.37839349336373   -3.70961050836241
H         3.80322313882314    3.30945983009562   -1.15496540784100
H         5.51409899986865    3.12528247372746   -1.57308784180560
H         5.42601273406913    1.67141924154721    0.28592673145419
H         5.34221004311673   -0.64818290315710   -1.15742743111635
H         6.32697586686787    0.74390592027807   -1.86651852834841
H         0.00313008943315   -0.05657973822172   -1.10307507726819
