33
 energy: -44.336474114153 gnorm: 0.145891456269 xtb: 6.4.1 (79825abcba525fcdf90b791dcacef51065a7a4e7)
C        -0.01568369488796    1.91955528170892    0.50952550908670
C         1.33721760421903    1.35160415258266    0.16612589592880
N         2.40554938419893    2.07211323106425    0.32653195864919
C         3.45019278227744    1.28171714253934   -0.38164625062788
C         3.86452225972164    0.23122131935179    0.68827431874199
N         3.40858514836804   -1.00073963512905   -0.07037876931036
C         2.28162303531716   -0.82089409894494   -0.69437757064541
C         2.16131497247569   -1.41007712699267   -2.10374407661071
C         3.60291471072009   -1.23824799721906   -2.73935190961510
N         4.30238334587243    0.07491233505502   -2.84014687219713
C         3.55533030419643    1.22438448910662   -3.36969552695041
C         3.75047288131219    2.46896229092929   -2.47329163563717
C         4.51928085271956    1.94816418475888   -1.25404451038922
C         5.19744263703588    0.66183231258065   -1.82151383701017
N         1.24965562886667    0.09145579472154   -0.42365686282252
H         0.17302476587244    2.87505178675144    0.98693147733959
H        -0.65587201145483    1.28755433665999    1.12804895843049
H        -0.57182307684633    2.14056370485149   -0.41900723561780
H         2.99799675275271    0.80797674096964   -1.21949126930700
H         3.37297141959250    0.42905243331304    1.64998709915003
H         4.91864174446553    0.08906661916552    0.94857996192451
H         1.28281986427692   -1.07513285245579   -2.66898294817160
H         2.09945413520322   -2.48908142916082   -1.92835497535216
H         3.51518461019989   -1.47761512505480   -3.81044459031108
H         4.37100015558104   -1.79586595110796   -2.18830960513538
H         2.48265522241086    0.99992633148693   -3.35344130859775
H         3.92693534074177    1.29273280835203   -4.39808023605161
H         2.84950161247322    3.04032531409524   -2.23177364375335
H         4.38550886610486    3.11361400965646   -3.09504028737763
H         5.27279980281256    2.56410372614896   -0.75562068745733
H         5.41689325076558   -0.09762474918766   -1.06664559926361
H         6.08419855792851    0.91522167697776   -2.41419884412052
H         0.32609534052685   -0.34166822574922   -0.41220363942981
