33
 energy: -44.342818921442 gnorm: 0.111695314463 xtb: 6.4.1 (79825abcba525fcdf90b791dcacef51065a7a4e7)
C        -0.02329228168866    1.97444791062383    0.29390862181651
C         1.29914274338457    1.32305999199207   -0.01865029166662
N         2.35087104880742    2.08427582489341   -0.04343408562771
C         3.57486314823439    1.28763658830641   -0.33452067298367
C         3.74630643035414    0.25813584075839    0.81902853892961
N         3.34790270929124   -1.04601964045997    0.15448817323746
C         2.30804797636700   -0.88412797436821   -0.60987805928222
C         2.26084256769061   -1.63678473154726   -1.94374613704246
C         3.53659546824424   -1.19759029304406   -2.77518773065992
N         4.06868028022842    0.19470091849262   -2.82227222647082
C         3.33735364840056    1.41815284941659   -3.18021490068023
C         3.96625072342319    2.52551600443917   -2.30338551670954
C         4.73545766994896    1.79966155321616   -1.19418945908594
C         5.27175442392182    0.63735577577884   -2.08750103248858
N         1.22582589162144   -0.03081270872572   -0.34290022780250
H         0.27728724901743    2.98015179922970    0.56724458241726
H        -0.57815805150827    1.49049871762288    1.09998224707563
H        -0.69077994945297    1.91533377422336   -0.58431374240582
H         3.18552446338962    0.64073789550598   -1.08340848813598
H         3.08162582564309    0.36857884002261    1.68600770714875
H         4.80738967776173    0.16345926901940    1.07255083771514
H         1.27965096017072   -1.34676762603728   -2.33945993903761
H         2.35756464625280   -2.72431492736744   -1.86151915991825
H         3.30788429088703   -1.55677152934118   -3.79052646509625
H         4.35639412234918   -1.73279336637324   -2.27917514467288
H         2.27209721547103    1.32374349131858   -2.94022929648721
H         3.45571841003836    1.76307588072253   -4.21334353751970
H         3.19527851293415    3.15498860944882   -1.84962130483882
H         4.64915466260601    3.06685685364935   -2.97122548015552
H         5.44158862469437    2.51348821661878   -0.76125854013504
H         5.72120393354113   -0.19160744766215   -1.53471286755319
H         6.06228072772919    1.04390827109807   -2.72906238361654
H         0.44512240165837   -0.13113730629121   -0.99184416922526
