33
 energy: -44.340750016497 gnorm: 0.116666640070 xtb: 6.4.1 (79825abcba525fcdf90b791dcacef51065a7a4e7)
C        -0.04498733959756    1.89910135461986    0.41501409379016
C         1.31765206459623    1.39854686806706    0.01067171639589
N         2.35527164845728    2.17336754509988   -0.08521751760912
C         3.52016344845994    1.28284851845625   -0.34507348452961
C         3.68850500537305    0.27332106488324    0.82644511991626
N         3.38870442461157   -1.03674643595999    0.12288011871466
C         2.36475815553926   -0.84328981566582   -0.65549710521461
C         2.20593810397218   -1.54943933786923   -2.00607240571495
C         3.55432482905754   -1.20171384694491   -2.76282374617963
N         4.12560935669964    0.17078433211177   -2.87982282285030
C         3.36871620321260    1.38295669423714   -3.22267434755193
C         3.96462411078527    2.53080519624201   -2.37536563990753
C         4.66377963759915    1.79369503177500   -1.22788576383015
C         5.22729969072130    0.53951653159573   -1.96684175841567
N         1.32902440746129    0.04711467959825   -0.33136102409683
H         0.12949401741167    2.77530678542170    1.03009230842198
H        -0.57878505879773    1.10792566431395    0.94505046806803
H        -0.61587383922268    2.22933063888816   -0.47118341120736
H         3.11377117449014    0.59498744122925   -1.04691958635519
H         2.98608630474464    0.57620487177865    1.61417617713558
H         4.71202878622182    0.30659083577137    1.21429440100805
H         1.31508766037762   -1.18734845253498   -2.53400420442436
H         2.15178767241430   -2.64177391825618   -2.05814215323325
H         3.27016762879537   -1.45463807640030   -3.79603076488484
H         4.45147504516382   -1.75866107540372   -2.46370516582555
H         2.28275336616386    1.23752578479336   -3.19417771394671
H         3.63927035594543    1.48628725830167   -4.27930112632154
H         3.22443151989345    3.28326896132712   -2.08822616014357
H         4.70819194402335    3.08734709914021   -2.96084485609027
H         5.49776590842360    2.34655117817353   -0.78695990942580
H         5.59072596750023   -0.26284849917008   -1.31962359424576
H         6.10201360339083    0.96716566166958   -2.47063689585328
H         0.47557267997423   -0.48801974463642   -0.49242778180612
