33
 energy: -44.343197915802 gnorm: 0.127868450717 xtb: 6.4.1 (79825abcba525fcdf90b791dcacef51065a7a4e7)
C        -0.08600437204309    1.87735374887639    0.41567694284169
C         1.27529200857430    1.34376353311850    0.05100262965953
N         2.31120246242916    2.12602396343305    0.01702639148921
C         3.49285549023174    1.31014440758543   -0.37738309039954
C         3.83739492558029    0.25526225585549    0.71278048818912
N         3.46523889921580   -1.02257655059855   -0.01508545656535
C         2.34381469193965   -0.84101036087245   -0.64849211255066
C         2.18963201819831   -1.56523478644805   -1.99000293881976
C         3.44500120329166   -1.10946596739448   -2.84326453987488
N         4.15607171713381    0.19617710650910   -2.72715712839555
C         3.44725061514919    1.36900126739724   -3.25805484592147
C         3.99798696675503    2.55754684329788   -2.43668808673055
C         4.63724549326232    1.89809449556785   -1.20976875223829
C         5.27126394420915    0.62826229454197   -1.85947738760954
N         1.26813055942236    0.00252811411159   -0.32915648783799
H         0.11277368275793    2.94360659477083    0.40602957060375
H        -0.39095015736112    1.58481856957125    1.42228946725853
H        -0.77512579622275    1.42697537104033   -0.32092320624098
H         3.00348031691609    0.67942814800650   -1.07995296638018
H         3.29184770186452    0.34507342131733    1.66144430209173
H         4.90279252021560    0.16094229749724    0.94765616767346
H         1.21340154395685   -1.32341113274179   -2.42810303099284
H         2.34885175936528   -2.64386818911349   -1.88981596138942
H         3.29026865174464   -1.21106172146897   -3.92860727713152
H         4.17653257884822   -1.86346924067555   -2.52564595290774
H         2.36241750490510    1.21508933294055   -3.23111542689552
H         3.72760304387701    1.38350650337505   -4.31707751761580
H         3.05535742448660    3.06285852728957   -2.20724196601294
H         4.78420067328967    3.09231006136810   -2.98560905931417
H         5.35687969384865    2.53171201982516   -0.68416996844816
H         5.39831454983611   -0.17711878223063   -1.13148073875227
H         6.18474423345781    0.92233885043375   -2.38946841144998
H         0.34251961955644   -0.39384608396715   -0.49293402773988
