33
 energy: -44.345228411478 gnorm: 0.125325864308 xtb: 6.4.1 (79825abcba525fcdf90b791dcacef51065a7a4e7)
C        -0.06477821104849    1.79958591806621    0.69084123505501
C         1.16158225904366    1.16963375723472    0.08253705110618
N         2.29765594421628    1.62225388965841    0.51919233559853
C         3.38181929433375    0.82296070253202   -0.11582136583243
C         3.24255252220562   -0.59416528422094    0.51051648638896
N         2.70699086373351   -1.39515200383665   -0.66112976172804
C         1.89366889073964   -0.75496687518855   -1.44880539080980
C         2.23712754659736   -0.80708995814086   -2.94120075511188
C         3.72922797822283   -0.52578796723114   -3.39533491201182
N         4.49842154740422    0.58615898132282   -2.76627110340891
C         3.96958081918595    1.95726495057502   -2.75240918386855
C         4.44497637888445    2.60021048271938   -1.42907454405667
C         4.74175601528306    1.39229474959373   -0.53368561068206
C         5.34533436010283    0.39401434414939   -1.57084708948095
N         1.04172901263829    0.24495346121634   -0.95384426555853
H        -0.77324524332913    0.99022494599998    0.83052013841181
H        -0.50654848452074    2.48429699429482   -0.03568977510635
H         0.39677013209970    2.33051661520299    1.54254219491554
H         2.99915706257117    0.61912430863535   -1.08685989846325
H         2.61103896410781   -0.67444081764953    1.40516575364364
H         4.11179244145703   -1.12844348047278    0.90813897311076
H         1.59371425772283   -0.15379449912765   -3.54341391225653
H         2.10293887547925   -1.83776991098198   -3.28548350462697
H         3.69590294013522   -0.38725971603352   -4.48709133056337
H         4.32994886082373   -1.38009659918080   -3.05794518066188
H         2.87632216344354    1.98176554931083   -2.82631942744688
H         4.35379339472687    2.42756226307556   -3.66429625917186
H         3.68062339901465    3.23901926309486   -0.97716334003993
H         5.37277793364106    3.16185577269419   -1.59982807396852
H         5.39879843648161    1.67510696552508    0.29330358931837
H         5.23880249811815   -0.63802438565237   -1.22688971235074
H         6.40355263994537    0.53963446514254   -1.81739647094558
H         0.10236537623715    0.15081244483289   -1.34039908613130
