33
 energy: -44.343707587093 gnorm: 0.117972985034 xtb: 6.4.1 (79825abcba525fcdf90b791dcacef51065a7a4e7)
C        -0.09503081142170    1.87047312348618    0.41825850372999
C         1.26783509688360    1.34247617574055    0.05131242421091
N         2.32721401802741    2.09339760087671    0.04587801033250
C         3.47609323592891    1.25452649723051   -0.39445592479625
C         3.81015252303223    0.29146686785208    0.78064447164598
N         3.40679265670253   -1.04281243117508    0.18217933570486
C         2.32094145892190   -0.90446630045283   -0.52035182843054
C         2.26926649496550   -1.49987457480548   -1.93128884781175
C         3.50193847546857   -1.12119341543115   -2.85262087553149
N         4.17332487230143    0.20531198626190   -2.96850769036137
C         3.44738240740250    1.43767724936088   -3.30626446483360
C         4.05760361139295    2.57005041817687   -2.44838594737403
C         4.62295562474208    1.76411750847326   -1.27377573444947
C         5.22451604294921    0.50568913305553   -1.97453076020926
N         1.26866913729703    0.01116256171729   -0.36231546894706
H         0.04408499646006    2.86883844979829    0.81877613895881
H        -0.39706909038741    1.34223968999636    1.32466892767619
H        -0.90564726613619    1.85227218213187   -0.33199376592741
H         2.96942531457674    0.69060489602003   -1.14022769611628
H         3.17277547505759    0.60564167872114    1.61772005812585
H         4.83572282663108    0.39246450540180    1.15096851552519
H         1.37972112891843   -1.22281192003119   -2.51041027571649
H         2.28182572718147   -2.59468784190087   -1.93932247911878
H         3.22762573337417   -1.42880170177605   -3.87358237042791
H         4.38198304988268   -1.72481667677807   -2.59629851371395
H         2.39059055853050    1.35328584516513   -3.02815195108230
H         3.57732729644326    1.51355764668650   -4.39148029266171
H         3.22579007387540    3.25379141385566   -2.25571950354005
H         4.86245602415055    3.08397210920377   -2.99015620496862
H         5.34576909071504    2.29920934989424   -0.65183036357786
H         5.43880930626696   -0.26802496934955   -1.23277302590162
H         6.10536137148791    0.95087311357243   -2.45175238357104
H         0.37974668310495   -0.46994297993752   -0.50032098633186
