33
 energy: -44.345922837849 gnorm: 0.121397576543 xtb: 6.4.1 (79825abcba525fcdf90b791dcacef51065a7a4e7)
C        -0.01954451724490    1.86362952578418    0.58754302967693
C         1.18055741372078    1.17113130194185   -0.00493926344840
N         2.30497784344752    1.66420527686970    0.41785263422053
C         3.40690176582185    0.84418706888249   -0.15734817946698
C         3.26732913745614   -0.57102013377726    0.47324555686570
N         2.84467954265270   -1.41006561185998   -0.71777541724336
C         1.88419835110022   -0.85739291821332   -1.39879766859571
C         2.05084346546153   -0.79665698899204   -2.92079148382188
C         3.58400190635043   -0.56638305627656   -3.24962499568259
N         4.47800463847094    0.52268569702614   -2.76126610375212
C         4.04093464138585    1.92422878338598   -2.69460994407126
C         4.39753060481760    2.59462704355254   -1.34776178774131
C         4.80007841506559    1.37640451123394   -0.50946050604472
C         5.37591502561347    0.41165292797408   -1.59308456449617
N         1.00609924853857    0.11921097287917   -0.90299975903637
H        -0.80183464616018    1.14167042396413    0.79562503232225
H        -0.37231679356650    2.60437939417416   -0.13265061970596
H         0.29210187971649    2.31605003434511    1.54592760871588
H         3.10015457498984    0.72228537922237   -1.16825946706540
H         2.56445685489961   -0.76939660132612    1.29316517495756
H         4.28320133253188   -0.88710033349566    0.73253664398785
H         1.41916985071209   -0.03800560245861   -3.39919803457728
H         1.85100555489928   -1.80415163258433   -3.30007729951948
H         3.58898070634641   -0.53869488108461   -4.35027993560410
H         4.22259657300064   -1.42677896003364   -3.01201945297745
H         2.96136838025227    2.01877886308871   -2.85854427030072
H         4.52593320371615    2.53202022000524   -3.46642784114937
H         3.66046025917909    3.20251487246015   -0.81509344350970
H         5.21705124597812    3.31624266364188   -1.46210662084309
H         5.50149913957866    1.54537721083068    0.31215730303946
H         5.48472167095238   -0.62882086938925   -1.27632749002324
H         6.39755793023122    0.66195316470707   -1.90197501859524
H         0.12348635501895    0.17846167377037   -1.41110903377912
