33
 energy: -44.334643438963 gnorm: 0.129088883713 xtb: 6.4.1 (79825abcba525fcdf90b791dcacef51065a7a4e7)
C        -0.05171253085770    1.79580930131031    0.59845033046025
C         1.32648278058460    1.35141684574256    0.18140505708692
N         2.34024466566525    2.16268437769274    0.16329185250495
C         3.46214964539624    1.34056410023775   -0.36865706913389
C         3.75028293288136    0.21239214734227    0.66291826909078
N         3.36238790892074   -1.02350916756304   -0.12654126377914
C         2.30750130748012   -0.80357401109306   -0.85496787966980
C         2.20772183568084   -1.49559810685993   -2.21844553998679
C         3.56201393077994   -1.17121747183046   -2.97501841501584
N         4.09104533057660    0.20642532033419   -2.76046729895877
C         3.41376563451148    1.43053532363896   -3.21062635329810
C         4.03976649225118    2.52032619734183   -2.31003030051997
C         4.70782933446316    1.79806127454683   -1.13491952044593
C         5.19663076777341    0.48350587231878   -1.82018719697382
N         1.32120108631724    0.07615623267433   -0.38177092810710
H        -0.18354950133979    1.65531804958597    1.66586877510872
H        -0.79634500193311    1.17670129940625    0.09440141319464
H        -0.17286093061162    2.86348371706784    0.34212396094806
H         2.98596306995606    0.83651839732837   -1.17493231536082
H         3.13124032013439    0.49169772645243    1.52571922776684
H         4.78252544739035    0.06875519253968    0.99904130646809
H         1.47779772062538   -1.04734636575802   -2.90380491860358
H         2.10669088739859   -2.58482956191467   -2.26541314767816
H         3.51373480492706   -1.42462657799226   -4.04538548929584
H         4.19623196157387   -1.90464600423950   -2.46082901463074
H         2.32211838753273    1.40841180314197   -3.11526213813578
H         3.59023524649869    1.69991891340469   -4.25782636452249
H         3.39081780843323    3.30586811838163   -1.91212909191200
H         4.87327583951438    2.99297809785404   -2.84601563462852
H         5.41163093335690    2.28429653858844   -0.45386356217175
H         5.22689768328992   -0.26962793232634   -1.02858562657650
H         6.16743315122072    0.70355195156463   -2.27946947023366
H         0.45010451338122   -0.15416307672566   -0.86013793431948
