33
 energy: -44.345896967249 gnorm: 0.117409434826 xtb: 6.4.1 (79825abcba525fcdf90b791dcacef51065a7a4e7)
C        -0.08551926114780    1.86537700891172    0.60384378364848
C         1.19865093783153    1.32392645444383    0.03063187659082
N         2.28783830822733    2.00238206814481    0.22954162088964
C         3.43443467967724    1.23967446319324   -0.33712939150493
C         3.80687315544267    0.14722961651997    0.70584436048219
N         3.32605108841465   -1.09286937043973   -0.02362503203934
C         2.25708516060038   -0.88230711039675   -0.73407411848571
C         2.21965834019913   -1.61530220973871   -2.07915479668725
C         3.43438000233372   -1.04079164552380   -2.91946500566138
N         4.18707711823990    0.24613021793865   -2.95240733392689
C         3.62933663689642    1.56100029380584   -3.29858428141080
C         4.18870053839649    2.61584146693406   -2.31623170412010
C         4.63973748725677    1.79862701548184   -1.10067170100955
C         5.16768750978460    0.56177883316929   -1.89316767396605
N         1.22006127287728    0.03357037142555   -0.49663224591229
H         0.21655830063112    2.52502266123862    1.41014253205535
H        -0.68853622872014    1.05147498498013    1.01099433168881
H        -0.67664108193746    2.48180387575697   -0.09679999037596
H         3.03925592146410    0.74339686598377   -1.19061506015346
H         3.33031974406813    0.27399353234273    1.68690430039539
H         4.87951687467181    0.01958506764937    0.88550291352501
H         1.23911762727101   -1.43437676326627   -2.53658479456781
H         2.29162734581432   -2.69439910494223   -1.90824920253653
H         3.17244479795033   -1.28608106562599   -3.96035681870022
H         4.13023742205582   -1.80728775265286   -2.55503829641074
H         2.54126406551566    1.69118615846207   -3.31925328091648
H         3.86628096992811    1.85138221353018   -4.32808543400678
H         3.41332793470763    3.35756344326447   -2.10367181607510
H         5.07505794274461    3.14854961544567   -2.68502772388960
H         5.27534823313781    2.38195315127385   -0.42886203349837
H         5.30600379052172   -0.34272282357264   -1.29525044527307
H         6.10199496739101    0.83955739244454   -2.39489109797456
H         0.38370532970967   -0.22285028527111   -1.02146401316668
