33
 energy: -44.349332220293 gnorm: 0.124760930171 xtb: 6.4.1 (79825abcba525fcdf90b791dcacef51065a7a4e7)
C        -0.07975829350374    1.88241910346792    0.65367458762616
C         1.23369200877892    1.35645438110015    0.13498093127498
N         2.27999894888593    2.12312167445492    0.07448901147158
C         3.46985238163505    1.35657854896950   -0.38830965082496
C         3.72711131197919    0.29943512452185    0.72353836976235
N         3.40076257827750   -0.95881556662560   -0.05842240473189
C         2.27582183228119   -0.80823754850920   -0.69371532850385
C         2.24743565738422   -1.42880635217823   -2.09443413615515
C         3.60266307668170   -1.19710018027903   -2.88272548167837
N         4.27528788215385    0.13293515047007   -2.83385902548607
C         3.52196865953307    1.30570916226342   -3.29959233586671
C         4.05026824611390    2.53301380082129   -2.52163518099809
C         4.61861163024712    1.88012634002135   -1.25688869724268
C         5.26995429196604    0.58695606991867   -1.84001639064501
N         1.21931285902733    0.04658888391945   -0.34202042650437
H        -0.24485117302928    2.94024911786632    0.47977546624512
H        -0.19440440467426    1.50772528556701    1.67264384658312
H        -0.84809808024349    1.35067810071958    0.06442567943009
H         2.98830586646240    0.76618667249721   -1.13023005021827
H         3.21511727698235    0.43215148192225    1.68577499433319
H         4.78287144757886    0.21524969976397    1.00177967179473
H         1.29490401185913   -1.17359059344710   -2.57504279458751
H         2.16436632455317   -2.51969523329904   -2.05085311510790
H         3.31085318271227   -1.39033391531985   -3.92663181271709
H         4.33266096068110   -1.92792736865231   -2.51186788217617
H         2.44116929481659    1.14958973456413   -3.20590695623975
H         3.59501996614310    1.39083698434724   -4.38943345394059
H         3.20372281451726    3.18422425615945   -2.28536913262865
H         4.86837110224277    2.96135442628727   -3.11547855196275
H         5.34086123999387    2.46698305094281   -0.68282134085943
H         5.40042855665086   -0.18006156217114   -1.07227940933600
H         6.25375160188562    0.70397586312913   -2.30934246581094
H         0.31149274269073   -0.41625968993887   -0.39023899075915
