33
 energy: -44.342935794837 gnorm: 0.103203567660 xtb: 6.4.1 (79825abcba525fcdf90b791dcacef51065a7a4e7)
C        -0.10398589954515    1.62382889211767    0.76760643832870
C         1.18305312397213    1.23626707266887    0.08631349353108
N         2.29880142314550    1.57762883711453    0.65620303707758
C         3.41676054815937    0.84235080679487    0.00270800830096
C         3.39049432372482   -0.65046438974493    0.43946108547679
N         2.73531673421681   -1.34496787491782   -0.73933837286367
C         1.94947364580092   -0.60045567847022   -1.46038950503074
C         2.04931560948484   -0.74406479601875   -2.98266825807817
C         3.60371880101196   -0.64049886539979   -3.27393648779804
N         4.48301803871485    0.42653151409163   -2.71529075121497
C         4.16053862374974    1.85000406159352   -2.88713131689719
C         4.36480904629800    2.57848063381047   -1.53872858200163
C         4.70479145555968    1.49862110431868   -0.50568683394531
C         5.25306693655360    0.38729177053303   -1.45485258215272
N         1.08463143705806    0.42293545651400   -1.04164462406128
H        -0.85361903667202    0.88200881086658    0.51412264038095
H        -0.38012386737903    2.65634472395261    0.54512854775630
H         0.17797163430579    1.50933370887610    1.82953845208377
H         3.10170947708353    0.74087049673919   -1.00790569668025
H         2.85346437164951   -0.65054333500828    1.39719260578579
H         4.35528961085175   -1.13396993500254    0.62527632075981
H         1.53024545383040    0.09767714989483   -3.45750820889826
H         1.73174453145982   -1.73054841067372   -3.33599113357824
H         3.76358252711031   -0.44346512763400   -4.34531597966621
H         4.02088470812802   -1.62548484572944   -3.02834358092406
H         3.10628893369072    1.98863500893318   -3.15286904961292
H         4.75258854694268    2.28853777588926   -3.69799626855733
H         3.48229354319040    3.17906746419773   -1.29998664596975
H         5.12935501199033    3.35384423363754   -1.67908054691213
H         5.50865713525037    1.88294183996093    0.12810820780363
H         5.23977123159235   -0.61274814967873   -1.01382760458465
H         6.30502808504979    0.60011123710373   -1.67824318313721
H         0.29661468317962    0.55171730705812   -1.67657455393079
