33
 energy: -44.347666789813 gnorm: 0.114100048756 xtb: 6.4.1 (79825abcba525fcdf90b791dcacef51065a7a4e7)
C        -0.05582237857679    1.92508241944241    0.65793346358641
C         1.20954401227188    1.33032706272708    0.09584124747632
N         2.26343934568659    2.08700636120333    0.15003813701075
C         3.44016539687515    1.34055864299985   -0.37498925542161
C         3.84569894326105    0.27692247612143    0.68527535578664
N         3.32777274865705   -0.99993157783712    0.05080145745853
C         2.23133604886095   -0.85838585655535   -0.63443856894719
C         2.32317946037477   -1.56810833578136   -1.98934941760208
C         3.63493171565628   -1.20054209878241   -2.79924659917884
N         4.24976991962276    0.14970810705055   -2.94959421898127
C         3.49395387193214    1.33398540662844   -3.38090110521735
C         3.94721360807356    2.50614262936431   -2.48023606202485
C         4.58778548160688    1.86734040678908   -1.24311872541355
C         5.21509742127091    0.61515360916415   -1.93238099220499
N         1.20120559325577    0.09078864064475   -0.54209265085310
H         0.04856880192717    3.00104131067902    0.56896237742686
H        -0.23647574417798    1.61837435063207    1.68998581632087
H        -0.94798866874703    1.65929281033989    0.06320328577964
H         3.04654670168825    0.71422394286649   -1.13896874230858
H         3.37075501361661    0.45676859801736    1.65879191070719
H         4.89551942805414    0.13729925313885    0.96369441747329
H         1.43154938687495   -1.25845550694393   -2.54840867377049
H         2.39258347200097   -2.64609416557341   -1.81055341973920
H         3.35796759210608   -1.57427309352837   -3.79716880995276
H         4.37849493408165   -1.89219485570047   -2.38298843681459
H         2.42355079619694    1.19192789503204   -3.19292660778718
H         3.68753941633618    1.43454866393384   -4.45456239776444
H         3.10536869777213    3.12056951317176   -2.14810262031045
H         4.70846269519452    3.20982708295158   -2.84182414424312
H         5.37254192521580    2.40517968842039   -0.70415225278787
H         5.37174929698740   -0.24303645938853   -1.27379944711913
H         6.22116020481979    0.87146684258018   -2.28445903283973
H         0.24876815099240   -0.09344928988615   -0.85770395949931
