33
 energy: -44.344556533115 gnorm: 0.115514333651 xtb: 6.4.1 (79825abcba525fcdf90b791dcacef51065a7a4e7)
C        -0.05277337349672    1.82055143066916    0.53456926492751
C         1.17075803585330    1.03159601533613    0.14552690174801
N         2.30691700097795    1.52854378530577    0.53073068726488
C         3.40258193351567    0.75919457807115   -0.12129869671001
C         3.30207297599949   -0.66614627571566    0.49371496601854
N         2.75861512758236   -1.39162149206206   -0.72263211471119
C         1.91264102646857   -0.71923373097105   -1.44650021947799
C         2.06926263417249   -0.79277160818798   -2.96899371236265
C         3.52882059933154   -0.36601447001438   -3.41542536318788
N         4.39047270594394    0.65283916194394   -2.74961838599634
C         4.15666922169177    2.10052200451870   -2.65294087067577
C         4.58310049597994    2.52680302273448   -1.22920096619170
C         4.82363991913746    1.23017097123809   -0.44833861045276
C         5.23755105813961    0.26463772170879   -1.60289377344496
N         0.96548155822820    0.18717645149919   -0.94456569064186
H        -0.48203629953710    2.28680978062707   -0.34567922515317
H         0.25963240136921    2.55264860438857    1.28174655483702
H        -0.82575248215175    1.26171742070290    1.09180946367366
H         3.11485074862023    0.87292266983899   -1.13873281067030
H         2.63251963965343   -0.65335919338649    1.36387912731501
H         4.28477931949423   -1.08043876142610    0.74228055141516
H         1.33166497957152   -0.21073458761267   -3.53522590959412
H         1.92459880375028   -1.85541227074776   -3.18968708778876
H         3.46019231452435   -0.12178310070435   -4.48681413522546
H         4.12613320028017   -1.28285997723354   -3.33085220410983
H         3.12586414919826    2.40510439776611   -2.86729560345234
H         4.76133752411277    2.68230322009010   -3.35738657891235
H         3.75329380827839    3.06562308630994   -0.76269301305470
H         5.48206798928543    3.15548119997199   -1.27435755302972
H         5.61408187652524    1.34270697007798    0.29874624696931
H         5.30191884633821   -0.81722249193195   -1.46078497111703
H         6.24018952465662    0.56330708553896   -1.93050705315536
H         0.16039618060581    0.31252558863020   -1.55841935349520
