33
 energy: -44.338789024222 gnorm: 0.128537814720 xtb: 6.4.1 (79825abcba525fcdf90b791dcacef51065a7a4e7)
C        -0.03979562343702    1.96194030329736    0.52168845946012
C         1.17721152375621    1.23392194307351    0.01206451402053
N         2.30399277578577    1.51330140520608    0.59387837065264
C         3.39506491446724    0.69584167135929   -0.00515696827400
C         3.37202209570072   -0.77338806913396    0.50550280316008
N         2.89259594787089   -1.42434533276603   -0.77807273384931
C         1.99385058522709   -0.70899257416654   -1.38822822662199
C         2.14160351650322   -0.97126100365430   -2.89066257256306
C         3.53033916892251   -0.40823140166481   -3.40655337776775
N         4.38849399308926    0.65297806547247   -2.80554521361618
C         3.94934823424323    2.04384601510877   -2.62545189878814
C         4.45014174510322    2.57649593630692   -1.26307001921149
C         4.72710132520245    1.29725030778097   -0.46577212941713
C         5.17489595015220    0.32189886045331   -1.59923763432733
N         1.11696768587869    0.33407507304116   -1.05101166917451
H         0.22481054068313    2.28904599685713    1.52143160407340
H        -0.81868513675013    1.19804472290742    0.48128783282250
H        -0.29317617823762    2.84804779511888   -0.08734405102355
H         2.99757118664768    0.67871502811551   -0.99136227636378
H         2.75475361923103   -0.95360006288483    1.39553320329979
H         4.40750772726091   -1.01108990175946    0.77083696684089
H         1.33567644097444   -0.44008089943153   -3.41197396010227
H         2.11526432803542   -2.05743634969870   -3.02619021370768
H         3.35322221572522   -0.00780471632065   -4.41676166101073
H         4.26278457568675   -1.22528000698432   -3.38428323561486
H         2.87918767171559    2.11721430463717   -2.85050957510698
H         4.50254633549795    2.64496051646915   -3.35549992600445
H         3.76708757804005    3.22587683368742   -0.70784274475997
H         5.43072476514017    3.02327873381754   -1.47345062416011
H         5.45355438262011    1.42085958165962    0.34205541065143
H         5.17876675211790   -0.76750943901238   -1.51016334558383
H         6.21868544049766    0.51303232218898   -1.87453610731301
H         0.30133400177864    0.39589785344870   -1.66061058176909
