33
 energy: -44.343097419628 gnorm: 0.124757596087 xtb: 6.4.1 (79825abcba525fcdf90b791dcacef51065a7a4e7)
C        -0.06959448416021    1.86969558697986    0.70784718577148
C         1.21689221488306    1.34230444316702    0.12677553090828
N         2.26080979396107    2.11140634968379    0.05667142943557
C         3.40995559680730    1.29625109377577   -0.42551940829622
C         3.73193737661807    0.23678507500287    0.66709209536446
N         3.36096718522862   -1.05715658878714   -0.03237702187152
C         2.22530558989706   -0.85532373561647   -0.63345836105698
C         2.22518720886498   -1.36691935066429   -2.07782483583062
C         3.61410698682210   -1.17334256322260   -2.81617585224611
N         4.36106835958054    0.11581933589581   -2.87875652789632
C         3.64440178213139    1.27225846988740   -3.43448469504525
C         3.93735699436152    2.48135143513630   -2.51640740535107
C         4.56375659999343    1.85030519239969   -1.26810292073493
C         5.32588907060284    0.63768206237975   -1.88880716898098
N         1.19190810374829   -0.01511924938453   -0.18986528966409
H         0.04889550888621    2.94045557628636    0.83407745203710
H        -0.42405528591095    1.34934213375271    1.59971453048411
H        -0.76224744053717    1.89236747084776   -0.15240084170714
H         2.92073440561891    0.69779721373246   -1.15586937404050
H         3.14226383550593    0.46581615109514    1.56457787987273
H         4.78294230420881    0.27702346918566    0.97189430729887
H         1.39539181684533   -0.94490530073398   -2.65815237497736
H         2.09483347103974   -2.45232770597034   -2.01671035220974
H         3.47406860923195   -1.33124839684038   -3.89677185293042
H         4.34655527348240   -1.88593837873343   -2.41584179378745
H         2.58798742264247    0.99919540687294   -3.53793882902118
H         3.94184325984858    1.52151764745718   -4.45905061845651
H         3.05895089279167    3.04756014138155   -2.19338063582918
H         4.70083965176295    3.07544301866337   -3.03560616077542
H         5.31622653745600    2.37140075897194   -0.66989974760812
H         5.49388026252278   -0.13029786249237   -1.12936958219459
H         6.22391559892967    1.05747919698064   -2.35692730898804
H         0.21322786519974   -0.30097340933269   -0.15575384317625
