33
 energy: -44.349279950554 gnorm: 0.106936405792 xtb: 6.4.1 (79825abcba525fcdf90b791dcacef51065a7a4e7)
C        -0.12425101947584    1.81730496319273    0.50334010495383
C         1.19198293549899    1.17246381783664    0.15328043239839
N         2.32291420751112    1.58567983058666    0.63953470245588
C         3.40278285679064    0.83287335299475   -0.05666086952207
C         3.41574997541537   -0.64348551159905    0.43337664064735
N         2.82356141134347   -1.39967270067495   -0.74078458632933
C         1.99571789998976   -0.68090038931974   -1.44064457912611
C         2.11323764985078   -0.70544477272328   -2.96822805884982
C         3.65103780677898   -0.55378548156145   -3.32022594282899
N         4.50858186413779    0.52123274055202   -2.74337235047201
C         3.93300242071960    1.87344561558772   -2.74836271384125
C         4.45085363469479    2.55604312408847   -1.46131755926708
C         4.75460810132460    1.40811872815472   -0.49236827258124
C         5.29334019727415    0.34792964922241   -1.50347725357084
N         1.10046279701802    0.24668512027980   -0.88500784828060
H        -0.87293766219307    1.06832385207806    0.73785346089242
H        -0.52596574698190    2.42808580502354   -0.30746787299982
H        -0.06574851920173    2.51220874066796    1.36007517945488
H         3.02620817845649    0.72249122485217   -1.04504479823468
H         2.85940597124551   -0.70780788326083    1.37783142003890
H         4.39878287242726   -1.10930490480650    0.55904878917040
H         1.71880540028387    0.21263742796462   -3.42098029455791
H         1.69568724605168   -1.56934908279534   -3.49563622227861
H         3.54605042647007   -0.45121244378571   -4.41141297732735
H         4.10116592963959   -1.49769221526258   -2.98711123594200
H         2.83971226292271    1.94615631900645   -2.72176799871756
H         4.29374705956831    2.34392988307636   -3.66969043249731
H         3.61001717024587    3.17550960403022   -1.13606197659831
H         5.36465632702786    3.15551832606511   -1.56625586408265
H         5.48997242820099    1.59866028490486    0.29409968800157
H         5.30584289780346   -0.65193911090844   -1.06204118793203
H         6.33299838323020    0.60212463371592   -1.74078194416477
H         0.14659072885785    0.07519122743617   -1.20345584290245
