33
 energy: -44.346397340222 gnorm: 0.117209055995 xtb: 6.4.1 (79825abcba525fcdf90b791dcacef51065a7a4e7)
C        -0.07224932457985    1.78421577377414    0.63689829609327
C         1.21237862059680    1.18429255876652    0.12635261681875
N         2.38132836902148    1.58308959228243    0.52724367926432
C         3.44245782562400    0.74108881600662   -0.09127158218061
C         3.36614984506927   -0.72099567704585    0.43449111751231
N         2.70075471928314   -1.44227590739550   -0.72229974464690
C         1.86428897206932   -0.71103438430522   -1.39859362286083
C         2.09966322620536   -0.73593012074574   -2.91249710860267
C         3.63506379391826   -0.53852045000442   -3.25206577011330
N         4.50264732648707    0.55179811049040   -2.72073697468103
C         4.07873472392849    1.95741998965030   -2.78647498931758
C         4.37816052907411    2.62888441143021   -1.42630066980884
C         4.73388240126516    1.44769168248882   -0.51684721158819
C         5.31878703998482    0.38590065833021   -1.50023976008404
N         0.98683329933775    0.26172938637877   -0.89418214326551
H        -0.66958265714575    0.97504555022920    1.04302309475217
H        -0.57122641365172    2.06454759141755   -0.29276480663874
H         0.09376307740072    2.72857495874938    1.18547318137419
H         3.10369083313428    0.63966429228788   -1.09419006465826
H         2.89429058402142   -0.73429910290305    1.42586526440243
H         4.36235209847704   -1.16611420876402    0.52714873023822
H         1.48054700728449   -0.01495049492663   -3.46051151583216
H         1.92448643122063   -1.72725985766363   -3.34309763534898
H         3.62725204496069   -0.56017014374683   -4.35283958184542
H         4.15649581232911   -1.47955135768353   -3.03501708433881
H         3.01350176072247    1.92353930541560   -3.04222550487975
H         4.63458748830755    2.37959837995468   -3.63094524568986
H         3.50823082608887    3.21031443443901   -1.10740051274028
H         5.19265121148272    3.36501047512603   -1.43818630847222
H         5.42339677276270    1.81064169398226    0.25024851102354
H         5.37790222209358   -0.67865024491322   -1.25941529722839
H         6.29834822290184    0.81225569322315   -1.74620524876911
H         0.12075038277963    0.30853103009059   -1.43121210856005
