33
 energy: -44.336862214171 gnorm: 0.146052446556 xtb: 6.4.1 (79825abcba525fcdf90b791dcacef51065a7a4e7)
C        -0.02498127625362    1.81032328216379    0.79828141638786
C         1.15059105769160    1.18884592574285    0.08931788497221
N         2.34591459233617    1.51876047704746    0.47474528388217
C         3.35439761939446    0.72031112182018   -0.27556318187016
C         3.27592615459895   -0.66634466269398    0.42512817919409
N         2.63038914939903   -1.43901133418967   -0.70952116909546
C         1.76961680383534   -0.77520427555495   -1.42379960805430
C         2.13697048335528   -0.89713365504072   -2.90640173996333
C         3.64034341242338   -0.54058885429319   -3.25921609965377
N         4.45714603628445    0.61237579008107   -2.78244359489049
C         4.27435124564217    2.06968541104413   -2.83373652943739
C         4.41291445326713    2.60914789449165   -1.39138604380323
C         4.71086779915922    1.39553409079328   -0.50412889078458
C         5.30358930772306    0.43695397937110   -1.58411958988584
N         0.93147089264040    0.21061221081521   -0.87945961431427
H        -0.47877202351885    1.07016393973065    1.44846524951839
H        -0.74428802246561    2.16917070156715    0.05959076844371
H         0.28784663630839    2.66956245690416    1.41808423357898
H         2.92958513414722    0.66080656876540   -1.24864542573486
H         2.66380576201903   -0.62526621167465    1.33577192889583
H         4.23406934477699   -1.12558398897588    0.69007297476791
H         1.48299375909517   -0.29379145518150   -3.54806281235494
H         2.21904853028985   -1.91082139917244   -3.31203546729669
H         3.72289480623270   -0.54342096845799   -4.35712773291435
H         4.36481195001488   -1.27941724839835   -2.89340386690695
H         3.36808036835273    2.33957865377985   -3.38790998783219
H         5.01363497408064    2.48723978089392   -3.52615606630543
H         3.50187272997165    3.15947173028634   -1.13903207538410
H         5.26078993585030    3.29713277645418   -1.27648655437528
H         5.34428212960908    1.57200578719976    0.36950871215729
H         5.26898710514517   -0.62056042335841   -1.30984667657587
H         6.31094554582386    0.76708962653329   -1.86351467228886
H         0.10277928905752    0.45870913869253   -1.42020848464599
