33
 energy: -44.343191285215 gnorm: 0.112976142141 xtb: 6.4.1 (79825abcba525fcdf90b791dcacef51065a7a4e7)
C        -0.13852711408142    1.69807515852963    0.46542028715452
C         1.22444608329663    1.28004536697994   -0.02283053264118
N         2.33642418400283    1.68956538254227    0.50820081734103
C         3.46089582892046    0.86827053785683   -0.01958744798884
C         3.36209232939488   -0.59174699002648    0.50816920240209
N         2.80466165543004   -1.40728834290471   -0.64305809710830
C         1.96920692843882   -0.74783407769467   -1.39065291331365
C         2.07529214689079   -0.92623351988266   -2.90882424616765
C         3.50083390766380   -0.44158901588543   -3.40347843062967
N         4.34277013531290    0.58240248767997   -2.72055029885653
C         3.98628322922099    2.00581629147822   -2.63927004717889
C         4.64802290925901    2.56725756444947   -1.35962995902555
C         4.85102251610618    1.37630678764170   -0.41660964368749
C         5.19766308021072    0.34778320814467   -1.53846261404303
N         1.13319650707051    0.32072181257974   -1.03023141422945
H        -0.51459691382082    0.94779373573637    1.15255215437274
H        -0.84001889085918    1.68670524906739   -0.37101115156905
H        -0.29200952252209    2.67349174488370    0.96071254328131
H         3.18204158984154    0.72626900711393   -1.03593943962580
H         2.62831313287165   -0.72773825611795    1.31360406423350
H         4.33162479542216   -0.98238728650772    0.83457665758273
H         1.20300377586634   -0.49515299929103   -3.41549859624897
H         2.14810226880975   -2.01724302902805   -2.96570415083839
H         3.34048349120512   -0.19417788925429   -4.46428387707388
H         4.22460423952976   -1.26586361064231   -3.36786164829015
H         2.90213833340759    2.16009292621874   -2.68516183440132
H         4.28236166923886    2.50697267758243   -3.56744930590625
H         4.14730811445039    3.41750391089199   -0.88750527771865
H         5.64214924367526    2.93070906292061   -1.65123545275390
H         5.62973472131443    1.51423926553317    0.33849336736224
H         5.17212531337576   -0.71823066628721   -1.29820879915524
H         6.19401545612696    0.62518869220176   -1.90198137606994
H         0.19081290595264    0.22000827266477   -1.40767166411224
