33
 energy: -44.338184683800 gnorm: 0.136931738290 xtb: 6.4.1 (79825abcba525fcdf90b791dcacef51065a7a4e7)
C        -0.04586296035514    1.87672687865481    0.53729734810502
C         1.27868197135024    1.36918140106668    0.02856164416557
N         2.32010172605665    2.14336699150119   -0.01916457992040
C         3.48833059824685    1.31518087298128   -0.42766331187837
C         3.68541941459886    0.32445785107912    0.75536850785009
N         3.43762213537281   -0.99268776385050    0.04481597771235
C         2.34898622447412   -0.76660190821392   -0.63010591911200
C         2.20334666719697   -1.51317482139433   -1.96027229895719
C         3.50019477071510   -1.21226813595420   -2.82014001979073
N         4.20613230894649    0.10129881292811   -2.81987042514106
C         3.60992635421007    1.33030582199342   -3.36197415886338
C         3.97435531180285    2.52718893011499   -2.45353769251024
C         4.65827061064971    1.84260836099525   -1.26506421274411
C         5.29276373626293    0.58927183746058   -1.94560851137058
N         1.24309312704158   -0.00035423912037   -0.22948923611336
H         0.10943931479842    2.75248780489483    1.15812334010535
H        -0.49037748629139    1.07380397411664    1.12853265303396
H        -0.76384442746537    1.99463419136341   -0.29391217514068
H         2.99429950916185    0.71049874785472   -1.14959703454295
H         3.05825007449586    0.36291048550323    1.65582997896417
H         4.66623681319295    0.28409551413848    1.24065500384928
H         1.25335023281862   -1.14629564508101   -2.36812368041779
H         2.02549405077353   -2.59339400402936   -1.97852931366576
H         3.28245165091762   -1.38529453007049   -3.88544866463935
H         4.28768357948059   -1.90315115165414   -2.49290512450377
H         2.51890487070562    1.39263013171678   -3.44602941532278
H         3.94803466813921    1.43660092003115   -4.39866167960603
H         3.04764266993342    3.03854452336270   -2.17739460533099
H         4.61476508021105    3.27734940442308   -2.93577467837806
H         5.38061842685081    2.41100057288026   -0.67282899864652
H         5.50891970928095   -0.18277098039227   -1.20265082078596
H         6.11748666416831    0.92153742215555   -2.58689582074938
H         0.37605167907552   -0.40973570215371   -0.57782405612822
