33
 energy: -44.333000255311 gnorm: 0.121354554030 xtb: 6.4.1 (79825abcba525fcdf90b791dcacef51065a7a4e7)
C         0.01848089600747    1.65013920569728    0.85128945647545
C         1.24213207659036    1.36471379387874    0.01939773339393
N         2.25595109165441    2.17424343280100    0.07443415649403
C         3.41979315714238    1.38819059331477   -0.42065649365852
C         3.65686099818978    0.34978496819362    0.71312170343677
N         3.27754530956846   -0.95000135150106    0.02913626510814
C         2.28225835007548   -0.82337016857955   -0.79859010519980
C         2.14133995811819   -1.45452724630399   -2.18772918065994
C         3.60752919197748   -1.25054601184420   -2.75377968595152
N         4.17865364494368    0.12546662829981   -2.68887872632218
C         3.54805558035908    1.25711430296682   -3.38279217867519
C         4.10402252106053    2.48080629236098   -2.61854539749711
C         4.57470627632440    1.93685573641900   -1.26524036712430
C         5.24955879648874    0.63894739919984   -1.80983429674440
N         1.24819263961676    0.09389723960141   -0.55372813179098
H         0.18924071769267    2.65191479311913    1.23048290713544
H        -0.11301871867394    0.90025171249318    1.63373059652819
H        -0.86976345731618    1.59854322607798    0.19656155790140
H         3.10132473936887    0.73036090540326   -1.19314174341734
H         3.17268535844539    0.68445558427805    1.64006311169866
H         4.69881281931662    0.19892023768136    1.01430455460027
H         1.40031635707728   -0.78645878583361   -2.64380469694546
H         1.79310067852467   -2.48772677635990   -2.28806114726209
H         3.68623867819758   -1.55012558629966   -3.81032576536851
H         4.26246599316878   -1.86456366293461   -2.12244715127395
H         2.46819490004580    1.16136847036082   -3.22151247926381
H         3.83128448942754    1.36126399837069   -4.43601159102817
H         3.37987126352624    3.27017474857704   -2.39709953825902
H         5.00586397265596    2.93940974572713   -3.04490533248397
H         5.20822608265753    2.58241787748350   -0.65082942320373
H         5.48225205441959   -0.17143549050284   -1.11421006223579
H         6.23552645879355    0.82499339478674   -2.25150431329862
H         0.31574751175256   -0.24587872989784   -0.78992631329580
