33
 energy: -44.345151835466 gnorm: 0.115492032056 xtb: 6.4.1 (79825abcba525fcdf90b791dcacef51065a7a4e7)
C        -0.11610524366787    1.83561672002179    0.34553775640580
C         1.30803463057049    1.38820926076789    0.13941670251508
N         2.34625680656467    2.16812715180202    0.14377783500636
C         3.48586063527409    1.33504384693696   -0.33035029567860
C         3.84810065196421    0.27360104036288    0.74763938048758
N         3.43679852546801   -0.99515044450520    0.02496297966744
C         2.30352424519843   -0.86978295024701   -0.60092432531736
C         2.20345474490634   -1.44935435987627   -2.01584752414646
C         3.49212293322683   -1.18051529958419   -2.89833956380454
N         4.20466040986205    0.12948308147996   -2.89755564322848
C         3.42614949359612    1.31944990935988   -3.26862968952083
C         3.98756222992248    2.50272312399329   -2.44687869303658
C         4.62564669202971    1.84935920174761   -1.21609694474432
C         5.21929410138770    0.59405577261680   -1.92909804413694
N         1.31942472495443    0.02493834787091   -0.15186901026042
H        -0.07769857745807    2.72403967289188    0.96660980953986
H        -0.66302869735938    1.02313995584843    0.82781753259564
H        -0.57585646913173    2.15267175164580   -0.60756964250447
H         3.01390410611019    0.67618031073210   -1.01886417933612
H         3.26758611642892    0.44957347811062    1.66289203687816
H         4.93188510952335    0.25151643771242    0.90274706304666
H         1.26796982786403   -1.16541724148213   -2.51352611677656
H         2.21250773840107   -2.54197630099910   -1.94560718214635
H         3.11537435677461   -1.38734319690234   -3.91200392782035
H         4.27762264361762   -1.83129498920778   -2.49334987178942
H         2.36261639921267    1.05458312352033   -3.26410947238017
H         3.67699884898811    1.47938950504919   -4.32306358033275
H         3.18090845105356    3.14149575761238   -2.07564416431937
H         4.67813777427504    3.12332577232498   -3.03286136560157
H         5.41833406469242    2.36822729951620   -0.67018371592489
H         5.59487865671964   -0.08899550441142   -1.16284949304698
H         6.11302207256986    0.87061162726894   -2.50057412951919
H         0.42227611350402   -0.27597375052485   -0.53300872892747
