33
 energy: -44.348539658862 gnorm: 0.115410744730 xtb: 6.4.1 (79825abcba525fcdf90b791dcacef51065a7a4e7)
C        -0.05288933810928    1.81286748409674    0.65420379804879
C         1.17092890951263    1.19533588012831    0.02829859877337
N         2.31533953493484    1.53256714809654    0.54093456633701
C         3.42473559907040    0.77781378960001   -0.10490589981375
C         3.32666492713719   -0.68507297420267    0.41498337663992
N         2.71821645759062   -1.47053186503530   -0.73131751919633
C         1.91426302618541   -0.75560753958554   -1.46227895738277
C         2.14078106056270   -0.72368285589636   -2.97740107103795
C         3.69841820646034   -0.58831120322848   -3.23657941702690
N         4.52157358075899    0.53380462711218   -2.70078342054224
C         3.94358724001007    1.88441439971216   -2.74054886800776
C         4.41081515887220    2.62553587971490   -1.46656633618242
C         4.72501005234387    1.49830261377685   -0.47687615927883
C         5.32595125986303    0.44922718393295   -1.46423877467921
N         1.05846715879312    0.25354967950645   -0.99340380561915
H        -0.32560132345517    1.21705002993806    1.51857099114495
H        -0.92568257172096    1.76821812246413   -0.00007132940933
H         0.12016043489116    2.84814395237580    0.99853677893343
H         3.13477481735886    0.68343274406209   -1.12368480399120
H         2.75685228241397   -0.75738402915448    1.35079078853746
H         4.25047601989512   -1.26284783532517    0.52399781953630
H         1.60032593621357    0.08850962126833   -3.47908618357733
H         1.79135132404970   -1.69188877090868   -3.35064971037467
H         3.83880711701555   -0.52722372305634   -4.32689680044991
H         4.16441569605536   -1.54306819329187   -2.96121405176792
H         2.85257877016948    1.92530076382624   -2.83701812781121
H         4.22674453515224    2.38127654386584   -3.67504705489701
H         3.64101709847708    3.29462540626528   -1.07126135958345
H         5.28862419904104    3.20198019469414   -1.78684928319177
H         5.37517071703718    1.73911454098552    0.36864105350317
H         5.50026705216834   -0.53597616066416   -1.02407059109307
H         6.37646300036918    0.67857089414586   -1.67788403034109
H         0.24473922556200    0.51279014538766   -1.55137552417157
