33
 energy: -44.327364846619 gnorm: 0.123341527057 xtb: 6.4.1 (79825abcba525fcdf90b791dcacef51065a7a4e7)
C        -0.04931083405577    1.81989443987731    0.25755653513339
C         1.32699102212550    1.34123146330809   -0.12651203087318
N         2.33821709966871    2.15144158520597   -0.21123280890776
C         3.58094793132926    1.33857202561296   -0.32252214949994
C         3.70567515788045    0.30221438834174    0.83088426541854
N         3.43235972426455   -1.04599719756914    0.19152118938428
C         2.41707722460280   -0.94814026380946   -0.61556492881782
C         2.24175908065804   -1.61391875771390   -1.98447951946524
C         3.42045003869590   -1.06809453974545   -2.89249709562396
N         4.04817401234692    0.28459034874600   -2.89599793853293
C         3.24282305333865    1.50987023168369   -2.99547303944678
C         4.14207112790937    2.58511277114088   -2.34293886468038
C         4.76214913681553    1.79425273454883   -1.18582885426888
C         5.15840105522851    0.48766108263640   -1.94238499500113
N         1.40066840961224   -0.04344217046720   -0.27050948810271
H         0.14784139651661    2.82110397903530    0.62526752463455
H        -0.59609918113218    1.18458734826228    0.95701699587958
H        -0.67721214275163    1.94303415898266   -0.64293519285300
H         3.32767138246209    0.58269188032420   -1.02636282201610
H         2.97701834037028    0.64879164653152    1.57559514530496
H         4.66493694834565    0.23210112071352    1.35436856868434
H         1.22355397529938   -1.43146603684187   -2.34972693701551
H         2.59093216807274   -2.65164021469910   -1.99160051665767
H         2.93269996788209   -1.09926031167657   -3.87908783590463
H         4.27814812535097   -1.74290328121014   -2.77618798508808
H         2.21798232137402    1.51141176058578   -2.60691597834277
H         3.13103572528754    1.61889929231808   -4.07988678095437
H         3.49633977412730    3.42321552563391   -2.06517878285219
H         4.91967039300150    2.92622966337533   -3.03892490855788
H         5.52524204869626    2.33077083302467   -0.61535872747512
H         5.23162953964044   -0.33484097064591   -1.22622326936831
H         6.06196541161977    0.55829385958038   -2.55915092552719
H         0.57464307843323   -0.41509361283487   -0.73981597315157
