33
 energy: -44.337388545917 gnorm: 0.128821189304 xtb: 6.4.1 (79825abcba525fcdf90b791dcacef51065a7a4e7)
C        -0.03711707159973    1.85202486376687    0.60691237364313
C         1.27878929122005    1.43257637357706    0.00417933652314
N         2.31186874217995    2.21816574131158   -0.03815774871163
C         3.44902785999074    1.33340061294381   -0.41443156897801
C         3.71761622866912    0.27446761365553    0.69302570029155
N         3.34808158775660   -1.07053369118651    0.09672325845271
C         2.32662748842254   -0.83893224618375   -0.67448023059170
C         2.28685318484556   -1.62917895263205   -1.98667409665763
C         3.52601734324286   -1.16351042024698   -2.85808523485888
N         4.18816441021655    0.17070462587598   -2.78571452954481
C         3.42907768687688    1.32621649304507   -3.28408780799814
C         3.99686872309585    2.50929066254130   -2.46644282541502
C         4.63212904724359    1.87209747855394   -1.22576192951783
C         5.24418277531816    0.57077855310481   -1.83283179044786
N         1.32384019143023    0.07778209716059   -0.32137798685751
H        -0.21651365530533    2.91500719620937    0.48696933203989
H        -0.00403645085705    1.49838638745220    1.63923162876838
H        -0.88295837118237    1.32971279314092    0.12519524656145
H         3.11321274057575    0.92140139503573   -1.33550721512869
H         3.18769300275904    0.61177425715090    1.59361242971216
H         4.78698880534360    0.17186245002170    0.90527402666687
H         1.39829052218073   -1.43998313348563   -2.60157054194807
H         2.41313210274443   -2.70378409295633   -1.81899644443644
H         3.09538988915542   -1.11816166105625   -3.87037778671932
H         4.36602083616420   -1.86689056157746   -2.79334607039842
H         2.36610834510884    1.08337365592363   -3.17272789930818
H         3.55016612449034    1.49609495894580   -4.35964152601426
H         3.17803478707625    3.18674598225113   -2.20740393106399
H         4.77754855495052    3.01298017171163   -3.05146744495055
H         5.33682851016813    2.48682740334877   -0.65910116474094
H         5.30825668558512   -0.21106683882203   -1.07166691098378
H         6.26307853302553    0.72132598025380   -2.20833765219781
H         0.45411287314391   -0.13480549808485   -0.81032799805904
