33
 energy: -44.338834892094 gnorm: 0.128281427256 xtb: 6.4.1 (79825abcba525fcdf90b791dcacef51065a7a4e7)
C        -0.12091413410040    1.82632495177800    0.25794912030886
C         1.20941242044038    1.13577302733521    0.10237601593635
N         2.31815757942384    1.67340811530174    0.51204528075615
C         3.38976934228483    0.84317726824687   -0.10430457171815
C         3.41253519718580   -0.58769645637014    0.50563190759835
N         3.03057129905973   -1.45205910690477   -0.68101957672511
C         2.01323264037460   -0.90643381281235   -1.28025042800838
C         2.06565325937690   -0.95813012680004   -2.81077457539439
C         3.42060545463150   -0.37158372527925   -3.38679558681500
N         4.31559017331931    0.64745172797765   -2.76681565470241
C         4.04399196201954    2.08776465097948   -2.65944094530263
C         4.60187962060886    2.60391184119173   -1.31298340863691
C         4.79200430137741    1.32142609349503   -0.49570571704620
C         5.19923973034202    0.32603542531094   -1.62704617989617
N         1.11820408917710    0.03533106397609   -0.74861940014557
H        -0.90942059146888    1.10874975600414    0.45755951877577
H        -0.39029125171475    2.51486978672980   -0.54528155060385
H        -0.28133419291876    2.49259617448227    1.12435367265388
H         2.90843490000543    0.86298019480367   -1.05236601097158
H         2.67403093164842   -0.61696312563532    1.31766993915267
H         4.41210293159779   -0.93737494064317    0.78442247036289
H         1.23210033850399   -0.45301212718888   -3.31424417089552
H         2.11209447986097   -2.02301918354552   -3.06116003880124
H         3.35198660983694    0.06445733062465   -4.39545428160703
H         4.03342778815254   -1.26855135258342   -3.54312380202935
H         2.97327410012336    2.31655470135320   -2.70939953656190
H         4.51955312684712    2.64996807868687   -3.47067813674190
H         3.88626310007645    3.28166299123151   -0.83855507394026
H         5.58786065096105    3.02568727932325   -1.54828069348003
H         5.56589383988777    1.44065190363425    0.26749728237605
H         5.08846728878061   -0.70727334599692   -1.28828062660547
H         6.27383307901293    0.52370564339088   -1.71645177882435
H         0.28425290345273    0.06446252683966   -1.33544814977309
