33
 energy: -44.344943336630 gnorm: 0.129626624379 xtb: 6.4.1 (79825abcba525fcdf90b791dcacef51065a7a4e7)
C        -0.08485526872257    1.87639718628897    0.55405870942542
C         1.27478888704062    1.38106820457539    0.13352255083383
N         2.32443469948298    2.14025406188419    0.04365193400870
C         3.46123650744174    1.29662697893051   -0.41840559433440
C         3.74134373590778    0.26343896544856    0.71031176360644
N         3.46044447095894   -1.02942528052700   -0.03181936111903
C         2.31179482684522   -0.84568540843437   -0.61371813507498
C         2.24100550591201   -1.37662234437332   -2.04934324661713
C         3.66756020011225   -1.21882319505385   -2.72148423528534
N         4.26517118940543    0.12769287756096   -2.95291810040383
C         3.43335424937280    1.29163319215228   -3.28925094729603
C         3.89259400109437    2.50448671925061   -2.44741982329786
C         4.61237515334461    1.86540800902170   -1.25479523447537
C         5.19279110214223    0.56204243882734   -1.88798560515959
N         1.28772124536934    0.03664154555766   -0.23503462886818
H         0.04329072323188    2.83286655720415    1.04928174521922
H        -0.64719934576006    1.16671173817494    1.16393839852795
H        -0.66325343126996    2.15812327889425   -0.34393614852025
H         3.06548953195637    0.70454280557059   -1.20816261653324
H         3.16103747713242    0.33344304905329    1.63982503655538
H         4.75929627422944    0.26370810286069    1.11392969141134
H         1.51522498790625   -0.88509648047876   -2.70895015549989
H         2.05608428951624   -2.45417705588405   -1.99002743565005
H         3.48863578860148   -1.52868735210966   -3.76273491862062
H         4.53528603034501   -1.76457730288738   -2.32938094419571
H         2.35711292900864    1.12598316644345   -3.16458265055720
H         3.62947832505485    1.38977741703043   -4.36267535819546
H         3.04459618181600    3.14075843232789   -2.17798731139369
H         4.60300894060003    3.01355365747275   -3.11193422649812
H         5.45037868043976    2.43465195775344   -0.84332221580035
H         5.35020287080514   -0.27582898710782   -1.20391494557990
H         6.09962344294714    0.85136948682308   -2.43182631472221
H         0.38095960123965   -0.30515660503339   -0.55385832000169
