33
 energy: -44.339604447328 gnorm: 0.129951406826 xtb: 6.4.1 (79825abcba525fcdf90b791dcacef51065a7a4e7)
C        -0.06144549180332    1.77268168232564    0.55403684364585
C         1.30036084347180    1.39939474155677    0.02775356527045
N         2.30551609760692    2.21874566865432    0.09500839041076
C         3.47600936520040    1.38560416668425   -0.29658185415533
C         3.71413210867903    0.31939155049690    0.81086052408257
N         3.40238874871885   -0.95713212414989    0.05292626418419
C         2.32307012232961   -0.81880786350555   -0.65960460402138
C         2.24803371038308   -1.50905385999642   -2.02556749923466
C         3.60706936305043   -1.18605085908601   -2.77418191139395
N         4.25274327994032    0.14043124081303   -2.99179738056277
C         3.41490287778227    1.31574902899207   -3.26828936391599
C         4.00578931222406    2.48516606804812   -2.44736824802371
C         4.62517850014515    1.84930209482656   -1.19801083157393
C         5.14495194754386    0.54865703578842   -1.88701918836434
N         1.27512433593270    0.09365899727551   -0.45999841047112
H        -0.23636695584260    2.83969893289224    0.46814399395621
H        -0.07396301372098    1.57127145281947    1.62693701385472
H        -0.77629066565558    1.20176100060458   -0.06511964174822
H         3.03815598840292    0.79560176186739   -1.06539722807767
H         3.25724266968523    0.47112636581653    1.79771382266215
H         4.79063612123618    0.21699936202785    0.98345782743013
H         1.44781540536672   -1.04658240211843   -2.61650500371739
H         2.19787987637567   -2.60257877141222   -2.00262768929285
H         3.35982328338945   -1.46944941433975   -3.80897047042738
H         4.45858742223843   -1.82230034932515   -2.50097093668736
H         2.33267063382483    1.28229483223425   -3.09819620933819
H         3.48335945410016    1.58973025853680   -4.32686618602215
H         3.22074675525783    3.18514246909526   -2.14690677943202
H         4.72660001971702    2.94814439977607   -3.13402748944097
H         5.47985810495628    2.40922310225314   -0.80863971402479
H         5.25736936354834   -0.35312913269836   -1.27964476688350
H         6.10000206566576    0.58668101787253   -2.42390949232633
H         0.35995831891432   -0.26001792229350   -0.73941745057050
