33
 energy: -44.345285567718 gnorm: 0.130926160157 xtb: 6.4.1 (79825abcba525fcdf90b791dcacef51065a7a4e7)
C        -0.00939370004355    1.78041688920658    0.68720852953615
C         1.26924397524615    1.24280969716270    0.09822812897561
N         2.40619585742125    1.79593237634557    0.39418750447182
C         3.46485839936938    0.91600324528941   -0.17368617589914
C         3.37916358634004   -0.42003703806624    0.61852159950450
N         2.93721233989345   -1.33794854274170   -0.50543503548899
C         1.95904649548622   -0.80844477286357   -1.17966042121887
C         2.03859203941162   -1.02175734720191   -2.69494747756449
C         3.50842167639889   -0.72427215897658   -3.20762256958273
N         4.34952552136573    0.42538249710336   -2.76643721224666
C         3.95665035174796    1.81574540945705   -3.03539132281037
C         4.38256931856421    2.62182406353656   -1.78662205061368
C         4.73210004014755    1.59537179732967   -0.70353206095574
C         5.33075654230207    0.52209712815071   -1.66595940706429
N         1.03523011073459    0.15128267283485   -0.73681136963122
H        -0.30362920768538    2.79614202043814    0.44590202555269
H         0.14352400794692    1.67009667535233    1.76251461145135
H        -0.80834952540694    1.10091302335959    0.34043355435625
H         3.14692371233946    0.64864650153886   -1.15263121932512
H         2.63962758396589   -0.44043511569064    1.42989159343944
H         4.31520710385654   -0.78963769691094    1.05020754732735
H         1.26367140712174   -0.39432527039092   -3.15240054497526
H         1.92602280090282   -2.08744946741313   -2.91959574977399
H         3.53468819666053   -0.85672086693022   -4.30032569434756
H         4.20359599558994   -1.50652205724219   -2.87692873521760
H         2.88195774976065    1.82714832937646   -3.25029426291206
H         4.45543348718199    2.21979076320090   -3.92325371942112
H         3.56351241227935    3.27672318173415   -1.47551306861028
H         5.28646698326339    3.23951923944796   -1.86932394933899
H         5.45691891842688    1.89040755983268    0.06013679344978
H         5.32918773129348   -0.44584377882711   -1.15817245155000
H         6.29460991158379    0.84077752478056   -2.07977969543432
H         0.22975399431270    0.29579485077139   -1.34592191831942
