33
 energy: -44.341766989898 gnorm: 0.123693167257 xtb: 6.4.1 (79825abcba525fcdf90b791dcacef51065a7a4e7)
C        -0.11654038936662    1.76917192541290    0.51324479199885
C         1.18933693203960    1.20054846925542    0.02112133870505
N         2.32470964060094    1.63958529326036    0.47319623730520
C         3.42353462029873    0.84651308401018   -0.14417099835083
C         3.29797233868536   -0.59245071017191    0.43337356232782
N         2.84529315653618   -1.44155940493164   -0.73933993175130
C         1.95742822336710   -0.76041194909437   -1.40228528155668
C         2.05738885849830   -0.96229733011153   -2.91792863858012
C         3.52840020633407   -0.52714551830967   -3.31605033069952
N         4.33976743357067    0.55545427610375   -2.68878089525181
C         4.02334728490361    1.98809043619980   -2.60376226767870
C         4.62038981523371    2.64023610984973   -1.33536142395387
C         4.81848488260282    1.38907424597672   -0.47268405162854
C         5.30577592288784    0.40386076545905   -1.58105058023305
N         1.06529547889639    0.23741165458744   -0.97911157802577
H        -0.57997302869305    1.05471894301591    1.18502454388699
H        -0.84351672400688    1.81102109027319   -0.30013801823936
H         0.11048281586129    2.70071622938314    1.06187442175381
H         3.14280041792918    0.76298722859402   -1.16647586034343
H         2.66372412487924   -0.56790390841516    1.32935208226203
H         4.29389943082414   -0.97930417495865    0.67339127234274
H         1.31565939365022   -0.43179918820189   -3.52771993814833
H         1.86696593788520   -2.03859710219693   -2.98239795755846
H         3.26269504926243   -0.14185526929917   -4.31263696417783
H         4.19081647994847   -1.40000845471052   -3.25395663320766
H         2.94078686703597    2.15901366298409   -2.61497313608047
H         4.40859869095799    2.61404056244568   -3.41623054051275
H         3.95152264440703    3.30785855011067   -0.78451402480300
H         5.58124999726358    3.11521130794221   -1.57319370948027
H         5.47319626002794    1.47789631325006    0.39855775385653
H         5.42297256123826   -0.62183966117234   -1.22193606373895
H         6.33301329061973    0.63631078601071   -1.88530068120827
H         0.27954814588620    0.35381846498965   -1.61922233920251
