33
 energy: -44.350978758821 gnorm: 0.114269447618 xtb: 6.4.1 (79825abcba525fcdf90b791dcacef51065a7a4e7)
C        -0.04735617597515    1.88116557651103    0.51362383851597
C         1.19232062977007    1.11454316456765    0.13109908304328
N         2.35170197466518    1.51710793054793    0.55533100926827
C         3.44991897852965    0.75810379555371   -0.10448282445191
C         3.33109245735562   -0.68983140511864    0.45166851055730
N         2.73797904922815   -1.45620030863003   -0.71540309589113
C         1.87957223082647   -0.76645330370652   -1.40760922869950
C         2.11114703951656   -0.86924126517775   -2.91881151181583
C         3.63167956349283   -0.56419361832095   -3.24539859503132
N         4.46721396959246    0.56518339252267   -2.74520278023113
C         3.99718762553198    1.95740574929853   -2.72094607884881
C         4.41088338926374    2.62065833874929   -1.38694972268735
C         4.76968385681311    1.44461067936373   -0.47205408082734
C         5.32986546656671    0.46424235199749   -1.54985231128769
N         1.00381566805500    0.21486912213386   -0.91701215759315
H        -0.57162254081712    1.41253099546690    1.33947328763845
H        -0.80658746245847    2.03073842223817   -0.25646274600477
H         0.20821307165080    2.89013095087440    0.88373466671335
H         3.16887580322581    0.68909421813037   -1.12778527266124
H         2.67116157074465   -0.76038652884239    1.32640506828526
H         4.33220138049702   -1.09007023996360    0.64330533044682
H         1.49032051576856   -0.13463370326477   -3.44641217791734
H         1.96827949870423   -1.89284997813687   -3.28027027443414
H         3.58714996649454   -0.50725865537641   -4.34403786321355
H         4.32504650218807   -1.39836322256724   -3.07823399308904
H         2.91037070388833    1.83905816661970   -2.79905063139143
H         4.29717919724448    2.54972169239329   -3.59244121894683
H         3.66089879080341    3.27736606919914   -0.93662325387561
H         5.33571987027415    3.16745701216608   -1.61301745127240
H         5.44738367161074    1.69143786515004    0.34977189073656
H         5.48806901827353   -0.58403530728162   -1.28368462619947
H         6.26630197822088    0.90705140597458   -1.90877368127211
H         0.23445136468422    0.38296533256769   -1.56548222618824
