33
 energy: -44.331478429343 gnorm: 0.137373481381 xtb: 6.4.1 (79825abcba525fcdf90b791dcacef51065a7a4e7)
C        -0.02947269733050    1.95804506693216    0.38128871804251
C         1.28795100309862    1.39430115719317   -0.08499588598679
N         2.40335465515387    2.01134320022886    0.16265319438509
C         3.54721490656815    1.23706050920725   -0.39375692299178
C         3.86462690712693    0.25224965859149    0.76785300436866
N         3.17868425873142   -1.00429215584140    0.26610974002083
C         2.22844344941831   -0.84298762175851   -0.60726634881939
C         2.46821825986599   -1.73345248021074   -1.83099221611585
C         3.40322786135095   -1.11948980100194   -2.95372959890172
N         4.03480464488842    0.22216369282378   -2.79598706434446
C         3.39143685295920    1.45402224215378   -3.27389777172996
C         3.86963982405723    2.56412782543177   -2.30974945441082
C         4.68049918006243    1.85524798854359   -1.21940253724922
C         5.15911963683776    0.52811800766337   -1.88740179022774
N         1.19925942815257    0.11154896271027   -0.62366585757836
H         0.30682459401873    2.92631771040478    0.73604658423950
H        -0.34155302697939    1.26332868713799    1.16347320323712
H        -0.64738473170964    2.11124409361265   -0.52149784539443
H         3.16265095545589    0.67078305264441   -1.20759714216477
H         3.50292266846838    0.51066249662990    1.77186679934860
H         4.91319550937151   -0.01960823148643    0.92826512731381
H         1.55054942377395   -2.03553691920503   -2.35067020165041
H         3.01401773483388   -2.55126109546748   -1.34919310169171
H         2.98435599783469   -1.15091731816279   -3.97146796580733
H         4.25785001556124   -1.80793247907739   -2.93929674165407
H         2.29719305928183    1.39688376257144   -3.24853627569296
H         3.70455819586051    1.68536494547242   -4.29799370435566
H         3.12615942607075    3.21851371303207   -1.84547380274777
H         4.51829687803657    3.26235108753859   -2.85486066203970
H         5.48206129134915    2.35338755290431   -0.66717632394113
H         5.28698155420728   -0.21690128468749   -1.09787203223002
H         6.09987572929934    0.59975208565035   -2.44567079202506
H         0.45632290995138   -0.08585155811963   -1.29431447709416
