33
 energy: -44.344386533902 gnorm: 0.125281139551 xtb: 6.4.1 (79825abcba525fcdf90b791dcacef51065a7a4e7)
C        -0.04205718642907    1.93399037812719    0.49791493049179
C         1.26400049611749    1.33425525265987    0.04474296719395
N         2.32116023460737    2.08102512433235    0.14935793310143
C         3.49804194781300    1.30866384634152   -0.33636797527977
C         3.83589675093672    0.30792324382272    0.80569716259797
N         3.34165730037963   -0.98890915237848    0.19323160988935
C         2.31918178711459   -0.85694274636878   -0.59979501396768
C         2.31751637800410   -1.50747227250169   -1.98714254255387
C         3.58946400033502   -1.20096607129418   -2.88153370030760
N         4.22419218159681    0.14793757958244   -2.91875080162166
C         3.52935213532930    1.35219888658696   -3.39493171313406
C         3.87686461976867    2.54535788207348   -2.47503979253426
C         4.56298640287195    1.90026350474000   -1.26592852752946
C         5.16312601418570    0.59078380060427   -1.86731847821221
N         1.23607322286065   -0.01746491369165   -0.29519432609559
H         0.29415490322458    2.66575836711194    1.22453584820841
H        -0.68242467603196    1.16699835845579    0.93779020994604
H        -0.50766174596831    2.50696672666244   -0.32380235497323
H         3.04621608533121    0.75377543531019   -1.12303673355438
H         3.34969046331094    0.47138319949200    1.77653965113002
H         4.85332218916868   -0.07759144617995    0.92962769676069
H         1.43725775584335   -1.16933584079276   -2.54771798204557
H         2.21785513675972   -2.59323515940414   -1.88701782500550
H         3.24967917524612   -1.43076463747004   -3.90328298864571
H         4.34054599950253   -1.90504683167576   -2.50115656692941
H         2.46872311699646    1.09569932164214   -3.49765245039138
H         3.80593858901247    1.56295161147706   -4.43388316721367
H         2.99020920203381    3.10462555138570   -2.16263346321112
H         4.55264024252211    3.15786834600818   -3.08624856434255
H         5.34738735596269    2.55509884028030   -0.87669279404481
H         5.27962391185208   -0.27628348407272   -1.21204584920326
H         6.06540846445469    0.86956837729600   -2.42407990709707
H         0.36084659032345   -0.39691675341739   -0.65669930546277
