33
 energy: -44.342236880431 gnorm: 0.134384192467 xtb: 6.4.1 (79825abcba525fcdf90b791dcacef51065a7a4e7)
C        -0.03166487669244    1.96577065487589    0.51596507546381
C         1.26720973939235    1.32795014305183    0.09531863845757
N         2.29606661246538    2.11685622553825    0.02267600450981
C         3.46027689856645    1.26653944253317   -0.35028235960229
C         3.86902378380847    0.20253264676430    0.70837524180445
N         3.38935485681894   -1.07427452235187    0.04441581217088
C         2.28145655893997   -0.83049597270481   -0.59189849801009
C         2.28747035409227   -1.51587431282772   -1.96235278671868
C         3.53555809928904   -1.16322567746557   -2.87320307844250
N         4.24128707628106    0.14887650287677   -2.80885636604300
C         3.46169320947378    1.30045389519424   -3.28414486439903
C         3.96169724489754    2.54127071804248   -2.50892616070029
C         4.53593181136118    1.89036369609220   -1.24582101108823
C         5.26734921887228    0.66570904408108   -1.87971695978245
N         1.19046982532958   -0.02641504753334   -0.22606990392215
H         0.07436548412743    2.83516021749612    1.15582463464600
H        -0.76022388331356    1.25197473736701    0.90523965110455
H        -0.59164252022750    2.33993285781523   -0.35966982441144
H         2.97903846717096    0.68833244457724   -1.10193502599887
H         3.47987091858533    0.43222037022250    1.70910219889666
H         4.95510455073545    0.07398982674782    0.76351309570074
H         1.32783860271942   -1.24031783184547   -2.41689852951648
H         2.28221104109642   -2.60939493520323   -1.90736777985440
H         3.28499963843659   -1.35492611294398   -3.92805098652596
H         4.29909264927491   -1.92574499680809   -2.67290349609428
H         2.41018198535623    1.01345088738642   -3.16911916950542
H         3.69730626662247    1.40520564442011   -4.34896901001770
H         3.18307859582966    3.26469239404121   -2.25017928127906
H         4.78796711585874    2.99536160918489   -3.07150725363926
H         5.09303067334821    2.66505835964975   -0.71188499899311
H         5.57086487921943   -0.15680694387362   -1.22694951106120
H         6.13574094672510    1.11657153798159   -2.37412221834097
H         0.33642645305376   -0.36039703873949   -0.67301189500952
