33
 energy: -44.344712719308 gnorm: 0.111457311500 xtb: 6.4.1 (79825abcba525fcdf90b791dcacef51065a7a4e7)
C        -0.06769939434747    1.77789069161781    0.57200893940050
C         1.21758512759661    1.13457129911763    0.11922027370055
N         2.38254149290973    1.53401298907605    0.53094742218936
C         3.45546934732437    0.76362242192795   -0.15669082734895
C         3.31174767734406   -0.67932587417552    0.40650070211178
N         2.70139963443986   -1.49601064660690   -0.71673667456180
C         1.82777899301042   -0.81140230074879   -1.39486714140016
C         2.07076742974853   -0.71784740522733   -2.90487665493392
C         3.60097970931300   -0.46427769675843   -3.23027664189974
N         4.47128183145679    0.65247066494295   -2.76203166633440
C         4.03358849524010    2.05504227957372   -2.73019364191068
C         4.57366428641545    2.64953816894041   -1.40902474952221
C         4.79265246997337    1.40726667750929   -0.53858484457921
C         5.31568862469399    0.37134496136667   -1.58255510472701
N         1.01758514349796    0.23516598625717   -0.92698945674731
H        -0.07238751388083    1.78001229626992    1.65666300146826
H        -0.95988106319059    1.21613945029450    0.28866294604327
H        -0.10862123378443    2.75345255438651    0.05537245598384
H         3.00673921313516    0.71317588514532   -1.11949501601070
H         2.60786692323143   -0.64900948533233    1.24869049862746
H         4.27101699343411   -1.11325500421161    0.70757006621406
H         1.43336020112451    0.02001151780968   -3.40758188257787
H         1.89195021725052   -1.65579402946219   -3.44071143413390
H         3.54383399887542   -0.59911142661859   -4.32150849324988
H         4.03327418141349   -1.42591487578437   -2.92545525103878
H         2.95177257156699    2.02849242972796   -2.90411001977925
H         4.50143988918886    2.61991086156611   -3.54405816449653
H         3.92426466610607    3.34476097403896   -0.86913470935438
H         5.58330607000157    3.05106658813098   -1.56655672440082
H         5.44926282561060    1.54946557173374    0.32410916062336
H         5.27333245297129   -0.64945186350783   -1.19404583594616
H         6.35805098568879    0.61346730196407   -1.82062070293204
H         0.05358249954660    0.16941492051206   -1.25420025691108
