33
 energy: -44.344309767951 gnorm: 0.120297536049 xtb: 6.4.1 (79825abcba525fcdf90b791dcacef51065a7a4e7)
C        -0.11210886442836    1.88064402494450    0.50969743735481
C         1.23190891459103    1.35047314755340    0.08148165612526
N         2.32333111474166    2.02707184022363    0.27437548181612
C         3.47051570885377    1.26129910429784   -0.28694598735733
C         3.85598349073909    0.07868852044159    0.64728482229736
N         3.34721126471593   -1.09544983571947   -0.16739971557542
C         2.20014871710258   -0.89004914904408   -0.74517182089913
C         2.21347914567328   -1.49031668912130   -2.15493272276453
C         3.53191393181669   -1.09786319756002   -2.94197931446943
N         4.25156758047682    0.20703843651237   -2.88597573057878
C         3.54211404623889    1.46116031440972   -3.17519926397064
C         4.11069499759331    2.58159237626588   -2.27412093053646
C         4.66655896249560    1.80887311599721   -1.07296310891161
C         5.18432380698921    0.51894280126083   -1.78329674560779
N         1.22162917417625    0.08916605094894   -0.51222149127150
H        -0.26340546818017    2.86092227688940    0.07076145487082
H        -0.15445056462752    1.92564097112378    1.59966073706329
H        -0.91496362899112    1.14475214607351    0.32477539105755
H         3.00766370757373    0.78255629218629   -1.11608339363237
H         3.19838364396784    0.20956314082735    1.51681637970904
H         4.88641243447720   -0.05824248741071    0.99166972707686
H         1.46070805527311   -0.98365577910226   -2.77142824495118
H         1.94554552159897   -2.54573845525713   -2.26954003268731
H         3.21444893891842   -1.14092041299853   -3.99535236221613
H         4.35770718179242   -1.79232960519613   -2.74117451064647
H         2.45831399019873    1.52423006947479   -3.02460996410072
H         3.72061819264291    1.70116130331002   -4.22917872287763
H         3.44054304760869    3.34524590343662   -1.86882409225533
H         4.87280922758233    3.15099534536054   -2.82219034640703
H         5.42961936543071    2.35572001038435   -0.51234208873557
H         5.41082760465594   -0.31397352852955   -1.11269546852519
H         6.07696881474823    0.86060317826624   -2.32020533069325
H         0.30590343038761   -0.24886111701487   -0.80865901085024
