33
 energy: -44.339594480206 gnorm: 0.130983749004 xtb: 6.4.1 (79825abcba525fcdf90b791dcacef51065a7a4e7)
C         0.00552513187484    1.97773173569781    0.56375139783640
C         1.22964312552272    1.26589822182592    0.04832741759437
N         2.27714218093482    2.03325452382803    0.03801863793235
C         3.48118889805870    1.26009018841662   -0.37430475155778
C         3.76416818054370    0.20529275534412    0.73351540539786
N         3.37904681663889   -1.13443558581464    0.13520907797910
C         2.32867418204908   -0.90821839083306   -0.59780226433512
C         2.21003895126974   -1.53280228921994   -1.99198490709887
C         3.50051311942606   -1.07767276417269   -2.79152596028158
N         4.33029009910683    0.15802157376530   -2.88282603576567
C         3.53534860741292    1.31673297764754   -3.31323533124154
C         3.95933408597938    2.55396733462461   -2.48856453288667
C         4.56851143678599    1.90230675206226   -1.24232966401498
C         5.29203219575538    0.68019788050215   -1.89005038718455
N         1.23028084346645   -0.07403760014244   -0.33645338746280
H         0.20722927076317    3.00323534319385    0.85385258042868
H        -0.49064450691384    1.46525299098943    1.39020088690804
H        -0.76016798377707    2.08826392990431   -0.22479503473586
H         3.05289568360745    0.66093262552075   -1.14142314461712
H         3.14284821225635    0.59230687482818    1.55194831082722
H         4.81571055038642    0.23893130886468    1.03726195256687
H         1.32859613185063   -1.12339915526376   -2.50079129403319
H         2.13039585506323   -2.61716240607250   -2.12105263107785
H         3.27965793362673   -1.32635051264384   -3.84110448673664
H         4.20084293072160   -1.85822177204709   -2.46776361465038
H         2.46093666068620    1.16084137319318   -3.16285491207723
H         3.71600081142520    1.40628173211980   -4.39012098270473
H         3.12690359409347    3.26360896074688   -2.49059125756532
H         4.77875180698763    3.00316927472993   -3.06492391795937
H         5.15816733050222    2.61210421485616   -0.65573600778708
H         5.69020331681213   -0.07681389106398   -1.20949723909032
H         6.11086800088951    1.06032642287511   -2.51200533952634
H         0.31048270441260   -0.45836834828127   -0.55313854207831
