33
 energy: -44.352066050140 gnorm: 0.101962762964 xtb: 6.4.1 (79825abcba525fcdf90b791dcacef51065a7a4e7)
C        -0.02535137400589    1.96070763988863    0.35985599057902
C         1.26252389118210    1.26473232669363    0.00232364771414
N         2.41308832452529    1.59537723375093    0.50538594225806
C         3.47064273948771    0.67529984521657    0.00283403139906
C         3.30586836379907   -0.76763120260394    0.56027442419465
N         2.81054117611901   -1.49249931124205   -0.67681011493722
C         2.00823059837291   -0.74882051981878   -1.38037399226820
C         2.13243304222263   -0.81526951694450   -2.90617965033426
C         3.56673652490473   -0.39754640699728   -3.43534246788304
N         4.36122264033712    0.67300879876248   -2.76712887265337
C         3.84869029222806    2.03834270163700   -2.58555195619187
C         4.42358115376658    2.50274454198722   -1.22745553363976
C         4.82004299889091    1.24263350259297   -0.45041107783359
C         5.29111733907036    0.37370031576343   -1.65855784143082
N         1.12118264560237    0.24513564558580   -0.93785185052226
H         0.11634930253775    3.00822246895400    0.60303187336594
H        -0.32601515949930    1.56232062344725    1.33079708922241
H        -0.82261289898847    1.75793438585250   -0.37741320197569
H         3.04383296131669    0.50589812331320   -0.95634893592754
H         2.58688658774713   -0.90597618330389    1.37855110079233
H         4.26749638030442   -1.22018792220346    0.82409035547002
H         1.35592016688789   -0.12750559929495   -3.26317386124669
H         1.96190611519188   -1.85335887903513   -3.20970793410948
H         3.49540129066315   -0.20297311997456   -4.51667740063575
H         4.13020443149577   -1.33568745600031   -3.35206014259170
H         2.75692771201621    2.09690047179207   -2.66238260392631
H         4.24446618612872    2.64449273876099   -3.40791469707870
H         3.71246537425197    3.08174946113636   -0.63113051845286
H         5.32392952028562    3.10495276969000   -1.40672068600519
H         5.63873172060442    1.43494260672264    0.24841981222112
H         5.16843051790769   -0.70171056880362   -1.50624556772829
H         6.32190287585652    0.59058952696699   -1.96229785086524
H         0.38262009159511    0.46524136254569   -1.60626043900261
