33
 energy: -44.347808552543 gnorm: 0.118131650696 xtb: 6.4.1 (79825abcba525fcdf90b791dcacef51065a7a4e7)
C        -0.08942796206756    1.97138219906598    0.46255268789842
C         1.24706186447441    1.37752088486589    0.09929327060231
N         2.31764949693801    2.10734024837717    0.01325799581308
C         3.46510302033507    1.25636722223602   -0.40711980587871
C         3.86955505935543    0.16948529049258    0.62972474600478
N         3.27389353085015   -1.11978220363048    0.09667912811390
C         2.21956142490362   -0.89498402814052   -0.63106542645899
C         2.30652168337959   -1.50980488167254   -2.03190726365897
C         3.70186983998352   -1.23318796911534   -2.73063394807947
N         4.17281169997738    0.17681050835612   -2.84863444630981
C         3.32869650439005    1.31712804219103   -3.23196422135818
C         3.93221115839348    2.49884233970215   -2.43829183801939
C         4.61070381360654    1.88040371125410   -1.21108309447672
C         5.23834144358308    0.65230142057521   -1.94211681403891
N         1.22744765138772    0.04699350236458   -0.31639517153662
H         0.19681745467647    2.97157377234107    0.76944240592373
H        -0.63407375359246    1.44345895433052    1.24772499286756
H        -0.64753012381763    2.15534864207401   -0.47285477606696
H         3.08606023895469    0.60718976390523   -1.15931040111243
H         3.54177553774603    0.45512130379847    1.63800224009557
H         4.93745950970080   -0.06849864111669    0.67531652663568
H         1.42867138856355   -1.12335459242321   -2.56432753941169
H         2.23145279957494   -2.60075680631820   -1.97688962753355
H         3.71422523464242   -1.65879944969784   -3.74598360808318
H         4.48976991803928   -1.72113886402854   -2.14270704196850
H         2.24610027292954    1.25019751104115   -3.07453741886228
H         3.48198379696514    1.56888038850063   -4.28717067862691
H         3.17735832346501    3.27082870695646   -2.26287769897682
H         4.72318634522516    3.02972517006397   -2.98413027780761
H         5.21127038940030    2.59757485385143   -0.64488173731597
H         5.64285679066196   -0.11678727883148   -1.27907114135322
H         6.05867275175047    1.06827879808450   -2.53863765866848
H         0.29581025802505   -0.35960852176740   -0.40252165567882
