33
 energy: -44.343104980439 gnorm: 0.118014692585 xtb: 6.4.1 (79825abcba525fcdf90b791dcacef51065a7a4e7)
C        -0.06143251452557    1.89581952877132    0.74600507037523
C         1.21213435791027    1.34484702653463    0.15839089165820
N         2.30710560444443    2.03891667234743    0.23256319189230
C         3.43330357888984    1.31056372683157   -0.41450888272914
C         3.79719136225660    0.29526329745855    0.70651347370882
N         3.30979808924207   -0.97096571119588    0.02807935905999
C         2.22435026412284   -0.81727156740610   -0.67188039671282
C         2.23859875739036   -1.53547487298971   -2.02535947411337
C         3.64866833338498   -1.24927758852230   -2.68983466119496
N         4.21015378944620    0.12091510363760   -2.86622093176330
C         3.54205566159905    1.30065172171337   -3.43337404212636
C         4.01538649890355    2.50473971857246   -2.58677822570384
C         4.55223034153414    1.87187998054506   -1.29831125075815
C         5.22954527732020    0.60725869920900   -1.91357705587898
N         1.18009695329209    0.09737823981810   -0.46312332552160
H         0.15054870984098    2.67164112125493    1.47378644279813
H        -0.61639258852774    1.07005584279126    1.19541711780045
H        -0.67778013325408    2.41984458379307   -0.00620643393722
H         3.00223468121440    0.72476316950722   -1.19033927810540
H         3.17093540885503    0.43303251549968    1.59784617046331
H         4.82039907637310    0.12178420079668    1.05592132533774
H         1.46811563752567   -1.11107533445290   -2.68085707764927
H         2.05731417879846   -2.61297438730681   -2.09585108111293
H         3.77234672167576   -1.79487316638648   -3.63812883393732
H         4.37153942658045   -1.70818270197275   -2.00324589405989
H         2.45017970477884    1.20997906203217   -3.46274841342575
H         3.80506731853023    1.59119383872010   -4.45648060928306
H         3.24596521406052    3.27807693126674   -2.50630270002563
H         4.86271219942373    3.04358054260364   -3.03074629510683
H         5.22855524696364    2.50932353445727   -0.72224791445382
H         5.70462656124764   -0.18149695654672   -1.32457625762017
H         6.01839318056832    0.96794374721605   -2.58398218080597
H         0.28784153284873   -0.25634938501972   -0.80873615870150
