33
 energy: -44.342642847041 gnorm: 0.131101796918 xtb: 6.4.1 (79825abcba525fcdf90b791dcacef51065a7a4e7)
C        -0.07725335817571    1.96126743952117    0.49918182675393
C         1.22766562827103    1.31395519702758    0.11316753692130
N         2.27463631082988    2.08124478628803    0.07689998727366
C         3.43218015903444    1.26118826861789   -0.37600368146864
C         3.77717599706494    0.22713234798731    0.73379208616455
N         3.35711156099396   -1.04429642026500    0.02092764145509
C         2.24810265580593   -0.91684791498618   -0.64661911960488
C         2.31070853132158   -1.66588985025856   -1.98188736998739
C         3.56382414280755   -1.15319463695839   -2.80564537651265
N         4.13931919784061    0.21891431338313   -2.90528734042093
C         3.41029945428731    1.43338562236772   -3.29693247043408
C         4.11145896470081    2.53426884456211   -2.46806218997891
C         4.59124972125517    1.86751689681147   -1.17419102593529
C         5.16108422331291    0.61735257318602   -1.91510420409433
N         1.23720722722238   -0.03808718593991   -0.22650152569607
H         0.18546808652964    3.00788512426051    0.60904440647510
H        -0.37923374415854    1.43276382595781    1.40545404038990
H        -0.77125332739686    1.78033597897280   -0.34101853771385
H         2.99455727454857    0.70796360036937   -1.17182035215077
H         3.28871179727293    0.58264986602895    1.65066769049914
H         4.84840791219954    0.32185323382754    0.94025035024681
H         1.50350687107294   -1.43568213365132   -2.68819197801431
H         2.39968247843658   -2.75257213169263   -1.88166946156557
H         3.33620315799076   -1.41444368114289   -3.85071491782453
H         4.47138708606701   -1.69129130226574   -2.50344984559927
H         2.35132747590306    1.45176710650671   -3.01494317301041
H         3.49928659611226    1.56700188792663   -4.38070591851346
H         3.48552083161510    3.42809274839979   -2.39179846273171
H         4.96381835687096    2.88673175824570   -3.06360504167865
H         5.36555224977832    2.37015391472994   -0.58817885827660
H         5.45312967113029   -0.20208129847813   -1.25329060177891
H         6.04534160307462    0.91546190030175   -2.49046276000613
H         0.30407644567168   -0.19384186020105   -0.60820644128559
