33
 energy: -44.340542134145 gnorm: 0.143144283175 xtb: 6.4.1 (79825abcba525fcdf90b791dcacef51065a7a4e7)
C        -0.07469540366960    1.90336809652145    0.54666195100205
C         1.18531998146599    1.18966390908202    0.12974320037694
N         2.32581197926251    1.69711522783709    0.48746849679954
C         3.35456787998891    0.85742972083516   -0.18640962186515
C         3.44008142533637   -0.55007538272268    0.47052053052926
N         3.06293363872267   -1.44183349487522   -0.69724998647424
C         1.99634407744350   -0.86752188039291   -1.17086945524891
C         2.06324837744940   -0.85538161727966   -2.70165391078760
C         3.53142758580061   -0.59885685238329   -3.24052051723241
N         4.45576482583473    0.46971537104363   -2.76348790361521
C         3.94117637581190    1.83851069139190   -2.90975598856273
C         4.46129726963722    2.61644223922523   -1.67894681239521
C         4.66367726836631    1.52224733056064   -0.62507786941461
C         5.31017285698993    0.45079905752146   -1.55814623502405
N         1.06543441692242    0.06232646381741   -0.68156586622095
H        -0.56075864489315    1.27228860010703    1.28285628750083
H        -0.71781480889407    2.05109368974350   -0.32305761005382
H         0.10367947857115    2.91102447358715    0.96273864281865
H         2.87869273852899    0.66678085279764   -1.11812382237854
H         2.77963661699944   -0.67305587314671    1.33904762077609
H         4.42788002807662   -0.90915395424420    0.77784995818619
H         1.43858520341867   -0.04178406917806   -3.09061568696510
H         1.66872109970196   -1.82199066388382   -3.03158352868993
H         3.45422736616599   -0.43594577368715   -4.32667558247222
H         4.01317358874250   -1.56642291726780   -3.05005437028598
H         2.85078070289137    1.91693900323596   -2.98826566364065
H         4.35670632916648    2.26443231373993   -3.82968127582066
H         3.85187489496070    3.43618706245639   -1.28759190306425
H         5.45480429673736    3.05571093306404   -1.83833541584473
H         5.28069701837056    1.86223737440973    0.21115895718770
H         5.57248610967347   -0.58205733480100   -1.31491983333386
H         6.29396045244187    0.86186902543668   -1.81309955991718
H         0.19379976707239   -0.07764378545786   -1.19279239710151
