33
 energy: -44.346367474104 gnorm: 0.112016018878 xtb: 6.4.1 (79825abcba525fcdf90b791dcacef51065a7a4e7)
C        -0.09306741285166    1.82517421292358    0.63868899188060
C         1.25017726334250    1.35279760396109    0.14534552025769
N         2.29818357588184    2.11935280021926    0.16184149781299
C         3.47983540129896    1.35957960855148   -0.33208745258379
C         3.79196785349584    0.27401193602322    0.73751834061046
N         3.39164526822927   -0.95700721974895   -0.05336383329857
C         2.23840772706242   -0.81359069121795   -0.63751911796870
C         2.24724470989719   -1.49479356708388   -2.01003839198541
C         3.61096652250388   -1.15773897024591   -2.74378860148471
N         4.29355426536576    0.13695624847927   -3.02952326903721
C         3.54305775197436    1.35081796813070   -3.38036647260755
C         4.00601285606775    2.53322786733584   -2.49822483998618
C         4.59594232441769    1.83143556166603   -1.27008369129710
C         5.19337659732864    0.55074833224443   -1.93302186422861
N         1.17190166907850    0.05647427666644   -0.36151091039567
H        -0.29640063688011    2.84259986200332    0.32245876606201
H        -0.03408896109003    1.64294997899373    1.71346962722609
H        -0.89974441621608    1.24164983906142    0.16006564012805
H         3.04242869423702    0.76822478302732   -1.10011761785962
H         3.19574920196506    0.40600300313278    1.65007109205395
H         4.84971832561696    0.28258730957012    1.02075899744078
H         1.38779502816602   -1.13171957687768   -2.58706510787267
H         2.12303433401962   -2.58262945237055   -2.01485861133284
H         3.51656597079825   -1.63636475844727   -3.73082386348589
H         4.34485064920367   -1.77956420045143   -2.21531142872935
H         2.45249378869453    1.27938027048421   -3.29763566195873
H         3.64579188186236    1.51312413629966   -4.45899490982731
H         3.21738947710402    3.16931425879359   -2.08591047265082
H         4.75655541030136    3.13914145591455   -3.02260306102738
H         5.36181782603987    2.41276337683508   -0.74941939505121
H         5.31922959612306   -0.27323377774467   -1.22593335676191
H         6.17373276132264    0.82353869902681   -2.34082690726559
H         0.35122409323481   -0.23320833353321   -0.89373595484482
