33
 energy: -44.337081126842 gnorm: 0.141230244427 xtb: 6.4.1 (79825abcba525fcdf90b791dcacef51065a7a4e7)
C         0.01292597730021    1.98163404536170    0.72002870901002
C         1.23632376310403    1.31222952873363    0.14903907331491
N         2.23023897610420    2.12627924897931   -0.03977791216274
C         3.38336950337032    1.25275460753844   -0.39300145055605
C         3.78036298360912    0.23060754660143    0.71042592583071
N         3.32530133160296   -1.02943547812679   -0.00117187346570
C         2.24173277737794   -0.85119658093703   -0.69821751323958
C         2.26557133859626   -1.50330340006884   -2.08462042407243
C         3.65469218295524   -1.21813172738152   -2.79225928644723
N         4.26117207195969    0.13709229659880   -2.93138525177446
C         3.61186243538297    1.35023699881934   -3.44759565296273
C         3.83549508664414    2.47861466655136   -2.41447090689411
C         4.53704796019032    1.85083578055331   -1.20510034603688
C         5.21969725544259    0.64875603715056   -1.93006155729271
N         1.19341342897723   -0.00713878033251   -0.29919152572106
H         0.08386748554270    3.00511018300045    0.36794233573299
H         0.04524118863131    1.93037068834745    1.81005867936348
H        -0.94813305422065    1.55491553203406    0.38152369982845
H         3.05700882369872    0.72090517473045   -1.25411722780564
H         3.34731303164199    0.39742837395659    1.70555878273404
H         4.81318252507237   -0.00290904748480    0.98951134403713
H         1.39549542628137   -1.10791793510925   -2.62320612161325
H         2.21525205736759   -2.59367646285277   -1.99863828128032
H         3.61189024611633   -1.58610504193290   -3.82907959483124
H         4.44536283763326   -1.81292627691101   -2.31728559014490
H         2.57637818895570    1.05670731111507   -3.65469512560747
H         3.97772515722833    1.64629509185913   -4.43695452469918
H         2.99116663715978    3.12079402054741   -2.14754204213679
H         4.42325051696862    3.27998012125933   -2.88113447716817
H         5.34073159130741    2.40325162111999   -0.71060262603063
H         5.45494918233619   -0.08787382417698   -1.15753800733458
H         6.19382833344930    0.96870186409616   -2.31803199216544
H         0.24668120280716   -0.32074438672849   -0.51376276993398
