33
 energy: -44.342775486013 gnorm: 0.139986822715 xtb: 6.4.1 (79825abcba525fcdf90b791dcacef51065a7a4e7)
C        -0.03628180924027    1.89023807273951    0.68770015538679
C         1.23336027385754    1.32648372771239    0.10372779592532
N         2.25343391902829    2.12127649205749   -0.01438423297740
C         3.37896137371253    1.26731887689638   -0.48498652284323
C         3.72891229158388    0.33077719351295    0.70680391226649
N         3.30770974355262   -1.01159290412661    0.13953687670661
C         2.25811863868336   -0.86123246737918   -0.61379756087508
C         2.32735729463023   -1.53739225010804   -1.98709233739364
C         3.64071462724439   -1.15085693673608   -2.78547526804051
N         4.25730481218409    0.19716849166797   -2.94810987906781
C         3.54674221340807    1.40058798024188   -3.40272902732392
C         4.08439575750003    2.55070595280885   -2.52025988910312
C         4.57576897309357    1.82291111166283   -1.26418387840058
C         5.22048957928416    0.54270468449704   -1.88223029259220
N         1.18878478709979    0.00982883737741   -0.35225203165223
H         0.22795350390300    2.85896420920853    1.09788338718171
H        -0.50827353524124    1.22227984394164    1.41081366602592
H        -0.69768120602867    2.05506144386047   -0.18160582710061
H         2.87534822582527    0.77209878422991   -1.27998737059272
H         3.19349868172312    0.47367419554933    1.65472984027726
H         4.78478188900340    0.22031043005287    0.97526501137969
H         1.36278607648454   -1.19355282553218   -2.38055532821514
H         2.30150543323959   -2.62994123221271   -2.05422474330029
H         3.33940449025539   -1.37006398268719   -3.82152217416668
H         4.49141032833829   -1.79000159662341   -2.51649279545200
H         2.46121165378811    1.28642120170482   -3.30339705302577
H         3.83225900201758    1.42470252806187   -4.46019560122070
H         3.29499430505797    3.28785873118008   -2.34709233989998
H         4.86006135645682    3.08339012539021   -3.08595271591324
H         5.23194725087347    2.45568060786647   -0.66033665721005
H         5.13615521847255   -0.24184775164710   -1.12584094305647
H         6.23378243437887    0.71816274859867   -2.26205894271745
H         0.32131952048895   -0.52339118879435   -0.41447429318189
