33
 energy: -44.338636634153 gnorm: 0.135875120389 xtb: 6.4.1 (79825abcba525fcdf90b791dcacef51065a7a4e7)
C        -0.03370069071416    1.95842201599599    0.54263820910706
C         1.26111150736932    1.29014860850838    0.15831316526703
N         2.33977796178877    1.98776530256664    0.34806531641842
C         3.45051968871426    1.25112668122472   -0.31611729115787
C         3.82584164312346    0.11779954316170    0.68120083537117
N         3.36346727598061   -1.07222415509598   -0.13807598012255
C         2.24247500055038   -0.88944298920996   -0.77189764924624
C         2.23196387507449   -1.50084019857846   -2.17689145805079
C         3.61332779471136   -1.12437090232473   -2.85647734058776
N         4.23108123637595    0.23284101852104   -2.86922670851267
C         3.50123620458951    1.43896144933281   -3.28443267528456
C         3.99413128471297    2.56526907428738   -2.34683999013660
C         4.60091530991123    1.82707746449674   -1.14861371310206
C         5.23808975677376    0.58489359852056   -1.84687046894795
N         1.24056103905022    0.04714318736166   -0.47255917163912
H        -0.04497704079938    2.15325585359316    1.60960284391869
H        -0.89596869249677    1.31864893834574    0.34509873723269
H        -0.15921570409539    2.93357231653164    0.03901467160165
H         2.96194179059229    0.72209725292944   -1.09862287930884
H         3.15263880251979    0.28377718359148    1.53261155583288
H         4.84467236740364    0.09806067075461    1.08211130637219
H         1.43193094848790   -0.86267966374200   -2.57203039327158
H         2.04908608328386   -2.56365620871587   -2.36614317643960
H         3.38167340808443   -1.31672761161957   -3.91551835420908
H         4.39072620868244   -1.88575282928973   -2.71333432961070
H         2.43771604036071    1.22869347101175   -3.12321935774049
H         3.65194514170439    1.58096120461438   -4.36028572804992
H         3.11537638896487    3.14992566487795   -2.05960771777220
H         4.80719601068756    3.16117757197656   -2.78185348455997
H         5.36843757950622    2.42905679302065   -0.65451950321545
H         5.25083731155786   -0.19049932982658   -1.07656990061212
H         6.20453567496505    0.77617022867969   -2.32771689810787
H         0.30481256368456   -0.29225329629279   -0.69588857982685
