33
 energy: -44.339818040958 gnorm: 0.125271962550 xtb: 6.4.1 (79825abcba525fcdf90b791dcacef51065a7a4e7)
C        -0.05430070750239    1.87605135478253    0.58773467307654
C         1.16146574943256    1.16320290654158    0.05426234289646
N         2.30256525137331    1.52406161292226    0.55811666107612
C         3.37925358830043    0.76852993577671   -0.14004971681774
C         3.33867449009224   -0.66443169576536    0.46403199534560
N         2.73788125131837   -1.42787094283073   -0.70102978560561
C         1.94337236486756   -0.73418891630865   -1.46216276712773
C         2.17970384632961   -0.83567539879230   -2.97271649014376
C         3.69851520167522   -0.62052843753779   -3.37103323771904
N         4.34284798153534    0.54180032770937   -2.69454733894335
C         3.93503255735148    1.95295656483609   -2.64849397970053
C         4.43171725441471    2.58534072308379   -1.32789220102683
C         4.75441507892055    1.36430874419463   -0.45967164053036
C         5.32738589069617    0.46016006528947   -1.59580285884009
N         1.07524488180773    0.27512611687362   -1.01689137390710
H        -0.46399079282120    1.24470736499060    1.36879786724792
H        -0.88749577218941    2.07807020515530   -0.08814394362966
H         0.30427625114028    2.83099203632882    1.01178615418003
H         3.13873293598111    0.70261054224313   -1.17382916305536
H         2.81568827647676   -0.63943430335223    1.42918037847489
H         4.30324314111525   -1.09038356363576    0.75950991232955
H         1.53599476895529   -0.12430039787946   -3.50471324474141
H         1.94457291477003   -1.85198101711894   -3.30539458524171
H         3.70348643860404   -0.45310824345110   -4.45923289216422
H         4.28645672663186   -1.45731860676932   -2.97272728277393
H         2.85009209305094    1.98988694027340   -2.79954970563405
H         4.26869403279467    2.62973224839701   -3.44283748093959
H         3.81086558471228    3.37297919943718   -0.89119469913463
H         5.38840351274218    3.05699329549004   -1.58810976835896
H         5.39309561393720    1.49347011245492    0.41839621125025
H         5.40907034437091   -0.57121054307185   -1.24315292333588
H         6.25813468827808    0.77458289998055   -2.08228277414899
H         0.19403681711428    0.33694333648892   -1.52712875500652
