33
 energy: -44.344745870183 gnorm: 0.123984412353 xtb: 6.4.1 (79825abcba525fcdf90b791dcacef51065a7a4e7)
C        -0.05352338147432    1.92444715863977    0.54025760066697
C         1.25792592344014    1.38234832636179    0.03324352631577
N         2.32751018596141    2.11858290661067    0.04525908213328
C         3.47463844360578    1.28779652434422   -0.41453751195128
C         3.80258355269296    0.26316433647500    0.70908221279400
N         3.35662900320792   -1.03414126114507    0.06156103070223
C         2.30512342081186   -0.75400779292310   -0.65091617621358
C         2.25215067784325   -1.45697189957753   -2.01141606652517
C         3.62675854240713   -1.19679497368562   -2.75605929651537
N         4.29113451792970    0.12176100445372   -2.96539332583477
C         3.48968305838240    1.31293993708996   -3.27934325466056
C         3.87405500790308    2.51507986534581   -2.38619586522251
C         4.63979133037101    1.83297767092074   -1.24722949383555
C         5.23296283879137    0.55061368300705   -1.91075393432010
N         1.18925830036623    0.04715220786794   -0.36175111133521
H         0.07438877480843    2.99445950061439    0.66359848864869
H        -0.24278107746042    1.44418072581267    1.50221561399077
H        -0.96617369736159    1.67580140963243   -0.03031533730494
H         3.07078685896842    0.71990905448048   -1.21784517905798
H         3.22107938265071    0.49652177437934    1.61077398807168
H         4.81867272472178    0.26451549328841    1.11736622842873
H         1.38104125239583   -1.13018370201718   -2.59263387903229
H         2.30186685320212   -2.55012798913165   -2.04851634066998
H         3.43442794798378   -1.56124138834419   -3.77704924427727
H         4.47191232098151   -1.78807676758033   -2.38103719210019
H         2.42322395897034    1.07132128668301   -3.20475834012127
H         3.59764216500667    1.48058314822607   -4.35664427474642
H         3.01402524998880    3.08959847769660   -2.03008766468472
H         4.60408388665726    3.21321009856940   -2.81641666691824
H         5.38959942826631    2.46557462484844   -0.76431383036835
H         5.25348410162063   -0.31371508624658   -1.24196823417378
H         6.17984391529968    0.78306978253805   -2.41195063811686
H         0.33385211686329   -0.26210047768968   -0.82363230107989
