33
 energy: -44.351171197300 gnorm: 0.118560857796 xtb: 6.4.1 (79825abcba525fcdf90b791dcacef51065a7a4e7)
C        -0.03401572888113    1.93594781218030    0.46853479710441
C         1.28682700443656    1.31587512158720    0.09208025913166
N         2.32570226530763    2.09312851438084    0.14510455621663
C         3.52022677409673    1.33678128281759   -0.32241252437681
C         3.82660869789367    0.24313113189576    0.74060199108188
N         3.45685310252709   -1.03052241598229    0.00422682110809
C         2.38451035879021   -0.81327482448140   -0.69908465958748
C         2.25529836317551   -1.49493683972530   -2.06530783262563
C         3.62385028654317   -1.26483310439735   -2.83071639858398
N         4.18005021348613    0.11872465584056   -2.84540036658958
C         3.36711445888957    1.27327813430162   -3.25275522119184
C         3.87370711998783    2.49437491916599   -2.45095662917369
C         4.60514532327205    1.92687042286608   -1.22956532851448
C         5.17742439888330    0.62958112880130   -1.88233762179470
N         1.29055706791169   -0.00777142200516   -0.34544754939652
H         0.19667173590363    2.73799066315256    1.16136339590498
H        -0.83255087810519    1.30773471086597    0.86794366185664
H        -0.45180582381187    2.41989510591979   -0.43232881336802
H         2.99965225822960    0.77623665472843   -1.06111908847658
H         3.12480389916965    0.43459162614976    1.56307615755038
H         4.88376798445840    0.12872404933364    1.00225086629609
H         1.31169789918962   -1.21777645852024   -2.55134959205772
H         2.23567898597927   -2.57216989263100   -1.87031447432711
H         3.44808365891541   -1.54016435111429   -3.88215898704892
H         4.42085590187540   -1.78779440650415   -2.28680999128855
H         2.30674981978491    1.12832504376729   -3.01633837065280
H         3.45729079979441    1.56971951108064   -4.30362516581427
H         3.08290864188278    3.21193164134537   -2.21370994951009
H         4.66730020053457    2.94437166704231   -3.06180102406434
H         5.36175480429258    2.58342181697352   -0.79129488017694
H         5.50776282604150   -0.17458336322062   -1.21980034259059
H         6.03293997366828    0.89783647194007   -2.51317034244389
H         0.34345624892799   -0.23896801968718   -0.64584622531142
