33
 energy: -44.344218980857 gnorm: 0.130228977074 xtb: 6.4.1 (79825abcba525fcdf90b791dcacef51065a7a4e7)
C        -0.00784116107053    1.86967598610624    0.73150701074010
C         1.26210806999008    1.31827972774557    0.13650714623024
N         2.27887278532474    2.12302940249341    0.20552686869180
C         3.40218575860545    1.38396914720827   -0.43437944014089
C         3.77660427609975    0.30762626537524    0.62450543977289
N         3.33080012266968   -0.98426004759334   -0.03386327644015
C         2.23399307912752   -0.85828966199605   -0.72154656721275
C         2.22814094944709   -1.57880801679096   -2.07385706144566
C         3.59000401736300   -1.25367684695344   -2.81638724657773
N         4.20242875602417    0.09593033627663   -2.65115275725265
C         3.56858601315306    1.20185750309793   -3.38256559106050
C         3.99067161762251    2.46930461084612   -2.60409527060328
C         4.54793383294234    1.96907568494346   -1.26690053500987
C         5.24218202711071    0.66401513580062   -1.76830948574219
N         1.21063011671039    0.07464552435359   -0.49135326401243
H         0.28352468821367    2.58651829381803    1.49160171863543
H        -0.54420985893143    1.10337040206911    1.29446519092231
H        -0.58847919711282    2.36117683388466   -0.06948936043329
H         2.97524856443779    0.82316964001450   -1.23069849583778
H         3.36672379752926    0.48809502341209    1.62704215815273
H         4.86603211405251    0.21693672679627    0.68820215637472
H         1.42072761315671   -1.15011207742112   -2.68027260677867
H         2.05419031112660   -2.65803794680675   -2.01187074658515
H         3.48122468039345   -1.52541581131099   -3.87778147456525
H         4.35795107989604   -1.93163976765652   -2.42247831954500
H         2.48637132209933    1.22710196695314   -3.21095097993091
H         3.80950894922144    1.31688748169816   -4.44513848056499
H         3.13224741645795    3.13219965794710   -2.46191960323176
H         4.78143101655410    3.06247141890693   -3.08187203542334
H         5.26646369282900    2.59124316758958   -0.72632574987608
H         5.46892520158797   -0.00992203154345   -0.93815535394447
H         6.20277640129111    0.86066304578330   -2.25862142031020
H         0.23978098220214   -0.09132381772666   -0.75705485930391
