33
 energy: -44.343715781785 gnorm: 0.110266181249 xtb: 6.4.1 (79825abcba525fcdf90b791dcacef51065a7a4e7)
C        -0.13315168511821    1.78018145178308    0.38792273128795
C         1.19116659038543    1.10534686537618    0.13970286808908
N         2.30929501466384    1.64506693003707    0.52008072936239
C         3.43356540484651    0.86982230772601   -0.07366503389592
C         3.45586925054138   -0.59101874002187    0.46055063107912
N         3.04010383488468   -1.35761607584694   -0.78066997739683
C         2.03515394032784   -0.78370479475564   -1.37435683498642
C         2.01489196631408   -0.72181567214051   -2.90526630914411
C         3.53158627992589   -0.48908788294347   -3.30176160466648
N         4.37808075742762    0.58051677687867   -2.69910164086630
C         3.89814249151500    1.96910050628025   -2.66317466803465
C         4.57543129601222    2.57986646038184   -1.41463980918313
C         4.81660839002031    1.39745408361093   -0.46986761680178
C         5.21066104287720    0.30271527355825   -1.51046550959653
N         1.09355922702948    0.09503512718427   -0.81592660826522
H        -0.99863152339411    1.13196533880178    0.30270871990784
H        -0.29523959498343    2.48796091748798   -0.42731544234385
H        -0.05376714929529    2.30485507080548    1.35680068406443
H         3.05901252825747    0.69480085824447   -1.05344721727154
H         2.72631916559983   -0.79592588002481    1.25517040714357
H         4.42323567786150   -0.92242150395295    0.85235322827356
H         1.47537468230643    0.15475929319305   -3.28470503464265
H         1.68229539153280   -1.67117346996373   -3.33762919598932
H         3.62289308328213   -0.36546195226819   -4.39199663416848
H         4.14604845711224   -1.37882831512200   -3.11377528870455
H         2.80775334514705    1.91437662577650   -2.75978885868849
H         4.22078774650739    2.51489748035248   -3.55667486856770
H         3.92355800596559    3.37203549430388   -1.03508044884537
H         5.55522883647505    2.95537621099268   -1.73776073577485
H         5.38056618085272    1.44776776942855    0.46555676706772
H         5.03348687570468   -0.69683585898090   -1.10516746355177
H         6.22516239106438    0.53337249470562   -1.85601147209223
H         0.24602419238527    0.15734873379538   -1.38027808297923
