33
 energy: -44.343711008093 gnorm: 0.128232195883 xtb: 6.4.1 (79825abcba525fcdf90b791dcacef51065a7a4e7)
C        -0.07947788546848    1.91641647991111    0.32705230447470
C         1.30965089919736    1.37953187284912    0.09703091954418
N         2.36453579163868    2.13345909704556    0.16779693942471
C         3.49842662690639    1.30348947936767   -0.32511702369959
C         3.93957965820637    0.24265393909325    0.72366911516210
N         3.33898957050308   -0.99670188341507    0.08770556996081
C         2.30265581747721   -0.82697419295570   -0.67973652925183
C         2.28986998529437   -1.58178012067766   -2.01316411296953
C         3.56786322762228   -1.17210794552259   -2.85615541812552
N         4.16429670468646    0.19466575704254   -2.85448226343358
C         3.30240082147387    1.33966282196508   -3.17992574808118
C         3.88959055892952    2.49783340028632   -2.34061436851300
C         4.64829554705066    1.85782598618921   -1.17287417136018
C         5.20362491573306    0.58056260829007   -1.87770186800877
N         1.26992771076477    0.09230367799035   -0.43677646324217
H         0.02354977905631    2.92313100977874    0.71745218375214
H        -0.57051968436968    1.22928410034543    1.01883592949492
H        -0.71891769652735    2.03984850510049   -0.56524251840008
H         3.02622451029996    0.74420257984236   -1.09655646858899
H         3.49515446162271    0.57408261221777    1.67145185690596
H         5.02122495946239    0.07316727770411    0.74494316090939
H         1.31886628587776   -1.41121213968755   -2.49430305626846
H         2.41292608837472   -2.63850975821461   -1.75428568437455
H         3.27415257539720   -1.34164806164529   -3.90363950909267
H         4.43432400138382   -1.77725938637626   -2.56021942404748
H         2.25270252825152    1.17009060769514   -2.91411331152202
H         3.37783304154383    1.37079124989264   -4.27248142428110
H         3.20450545648050    3.32444480312332   -2.13107233599654
H         4.74826615269073    2.77969987442040   -2.96402871264168
H         5.40223186379309    2.44580804024771   -0.64235012221601
H         5.32340390362134   -0.24181302706807   -1.16769414596720
H         6.10833980383493    0.79559790936469   -2.45827790809402
H         0.40957817761147   -0.18922338971322   -0.90712993480832
