33
 energy: -44.345842358100 gnorm: 0.114168113317 xtb: 6.4.1 (79825abcba525fcdf90b791dcacef51065a7a4e7)
C        -0.05406703814317    1.97140811480115    0.42707607203793
C         1.17580878160036    1.18836745589911    0.04617388099340
N         2.33126686473542    1.61281086359480    0.45964773475906
C         3.41868854088827    0.72033896224327   -0.02874774880469
C         3.40963376860283   -0.75397397172122    0.46749792068297
N         2.91423932789236   -1.46978187862591   -0.77482423266898
C         1.96763454436965   -0.78942486950068   -1.35172650902939
C         2.09731967039204   -0.68605533805655   -2.87501935551765
C         3.59703992488858   -0.50825734457323   -3.35560169542075
N         4.36202327778061    0.62916737430632   -2.76834407195460
C         3.92376383413927    2.02778873232632   -2.66071879700665
C         4.52893619136820    2.57403631068477   -1.34695532468786
C         4.75030307409981    1.33014879687430   -0.47942984556642
C         5.24806854187383    0.37905676176975   -1.61266768220799
N         1.02089333023449    0.05844573590066   -0.75555099396407
H        -0.03980149037993    2.07735890619378    1.50646100429803
H        -0.98586101482701    1.50503889638767    0.10135031452735
H         0.00633321354575    2.91196435967739   -0.14913096866372
H         3.12645382512705    0.59485921964009   -1.04351333621537
H         2.70262777546044   -0.83816841070696    1.30338347892292
H         4.36533012713205   -1.22297111601318    0.72405398584886
H         1.52729055673986    0.11779643367851   -3.35702084971863
H         1.77863997002242   -1.58345759995338   -3.41534406670703
H         3.51299749348069   -0.56337195394490   -4.45201948228707
H         4.09264397350974   -1.45326537878668   -3.09893636461714
H         2.83096183446403    2.10948528358929   -2.64104768641080
H         4.31058908657874    2.63761835859189   -3.48461863974317
H         3.77723331030091    3.19059707896792   -0.84562562528310
H         5.46232662998512    3.15213642564445   -1.34627216989118
H         5.48992007484872    1.43367405115870    0.31922392023912
H         5.34215108476480   -0.68225789800023   -1.36870186902501
H         6.26895644424923    0.69028703704272   -1.86314992312219
H         0.18609058025251    0.12121569474689   -1.33852226177583
