33
 energy: -44.346664140184 gnorm: 0.129184722967 xtb: 6.4.1 (79825abcba525fcdf90b791dcacef51065a7a4e7)
C        -0.14708999701827    1.73637557182709    0.50507233671355
C         1.15924189268555    1.12777302545071    0.06469334709516
N         2.29909477225324    1.57861169266921    0.49326790675317
C         3.40409124458210    0.84969442848600   -0.18877651255158
C         3.34717463876700   -0.55539057839668    0.47638289407721
N         2.85523872797884   -1.38234335578793   -0.69635284762493
C         1.91788770980464   -0.78915359743563   -1.37551521261142
C         2.08092611602967   -0.79057878910379   -2.89910999916808
C         3.57388764315667   -0.49275349847912   -3.33967592840436
N         4.42000367837729    0.55858681670448   -2.70518618334466
C         4.06695519546343    1.98444756058279   -2.65964328644484
C         4.65781379047845    2.64045703035000   -1.39033947789673
C         4.79646269799213    1.42739288738799   -0.46399624878288
C         5.30471974348293    0.40809557153153   -1.53136791938792
N         0.98152981326285    0.14780584921694   -0.91078984685614
H        -0.59234660712794    0.96549483119280    1.12474188799418
H        -0.74860132880852    1.99159334816194   -0.36950501596387
H         0.02178735277205    2.58015222336410    1.19777010544636
H         2.97393530682059    0.76207922815647   -1.15737598452685
H         2.71287786248077   -0.65697592167559    1.36688773340583
H         4.33308748543072   -0.99577719161982    0.65851023173192
H         1.43408204304148   -0.01422317935839   -3.32607724312206
H         1.76206049568705   -1.74052283761176   -3.34043685749116
H         3.46168600110251   -0.25462929976507   -4.40875982345588
H         4.05015927565496   -1.47529806979807   -3.22871580830890
H         3.02306891154760    2.12903297189223   -2.96076448403961
H         4.53481274603483    2.36247457052192   -3.57536256449560
H         4.05196810473754    3.43028177624058   -0.93683782807668
H         5.66301378776338    3.02419083183362   -1.60883263537681
H         5.48299989330983    1.48122469319152    0.38533728251547
H         5.22531781589059   -0.60172106302266   -1.12060600109786
H         6.29309725528534    0.71254218581766   -1.89501596560951
H         0.02885591475569   -0.03259399119328   -1.22790110071951
