33
 energy: -44.340547818300 gnorm: 0.109351254827 xtb: 6.4.1 (79825abcba525fcdf90b791dcacef51065a7a4e7)
C        -0.02539782410863    1.89679939567031    0.39772086741425
C         1.31742759079802    1.39540548525876   -0.06731432839435
N         2.38402429492498    2.12218464481199    0.07537321269056
C         3.56577498689800    1.31606360107349   -0.33833721484821
C         3.77565977770203    0.26074092396189    0.78513188277347
N         3.40107808887970   -1.06877119569332    0.15803776757633
C         2.38382436440626   -0.85633141318198   -0.62415575615359
C         2.25435515486292   -1.60002439790526   -1.95760356974836
C         3.52369888889189   -1.21752585721598   -2.82604684124086
N         4.08306516774090    0.16226970415685   -2.91018731861430
C         3.35723043774050    1.40674076506345   -3.20044921900421
C         4.00117033541371    2.52144368119758   -2.34407705693318
C         4.73256952335329    1.81817099613966   -1.19545933564726
C         5.14883368354166    0.51671732110216   -1.95012283697051
N         1.33943645265906    0.07530491869875   -0.51490204521886
H        -0.13308937000623    2.97329035318408    0.31980649370469
H        -0.23525538745486    1.58828676013352    1.42369225539849
H        -0.79344106946338    1.44411972744844   -0.25458234671999
H         3.10355757762005    0.76611727585542   -1.12243516585526
H         3.05443609732125    0.50531519273114    1.57612536000576
H         4.75091732510784    0.36268583951868    1.27258938497607
H         1.44822585516542   -1.19155944165815   -2.57949443108634
H         2.19746510789170   -2.68400108607594   -1.81408901411400
H         3.19550407924927   -1.33507702500571   -3.87041392817442
H         4.33424595758309   -1.85658771018675   -2.45301326310177
H         2.27922566102752    1.43367787343501   -3.00434316772278
H         3.48849832505736    1.64080721598791   -4.26267261407886
H         3.17276415482771    3.08943956624304   -1.91087993409562
H         4.64615112559525    3.19976523146923   -2.91792161594413
H         5.55082845256045    2.42739342559170   -0.80188726109332
H         5.26475190694314   -0.20008571101806   -1.13310629234636
H         6.00045190853380    0.71750881913712   -2.61061274752589
H         0.48556481110391   -0.30885275207658   -0.91989253180037
