33
 energy: -44.345115720881 gnorm: 0.118577766741 xtb: 6.4.1 (79825abcba525fcdf90b791dcacef51065a7a4e7)
C        -0.01675522185247    1.96782747402188    0.35679436682076
C         1.21583223669705    1.13032167646617    0.13286156089085
N         2.33108863322711    1.60900219195320    0.59466711266184
C         3.40723675431848    0.77192895340541   -0.00427844260099
C         3.44529233276719   -0.68293638792270    0.54513852966268
N         2.91820796136912   -1.44400372779516   -0.65657671047243
C         1.98378361983883   -0.83024834167217   -1.32134584380652
C         2.08011657379157   -0.79022884701614   -2.85008486686072
C         3.56213393332358   -0.50700205252888   -3.33499670749133
N         4.34362081071635    0.66358504762501   -2.84223901013042
C         3.85843158048895    2.04637223969906   -2.73139117377454
C         4.49074468643973    2.55247967932039   -1.41433769743729
C         4.73608593206958    1.32496006556946   -0.53010742335760
C         5.23839691123227    0.41329676694575   -1.69334782374753
N         1.06014655172975    0.04326321957498   -0.72594608135366
H        -0.91181945975078    1.40278832858464    0.11995753747031
H         0.11611386324127    2.90850557804454   -0.18107927169934
H        -0.13359988360161    2.22628825241368    1.42443388705916
H         3.05594236273051    0.68720674998341   -1.00443337692512
H         2.77203271157950   -0.82686762089079    1.40050753224068
H         4.48108595950882   -1.02680836551846    0.63468460734371
H         1.47424089284259   -0.00579058221338   -3.32019929259881
H         1.88401717562343   -1.79274369788162   -3.24422617811288
H         3.45435488222345   -0.53835231412770   -4.43027455116426
H         4.19733786466660   -1.35044980696637   -3.03557642646408
H         2.76462894991567    1.99419854315069   -2.77777223836937
H         4.23651239523970    2.69287105039561   -3.53103552472357
H         3.74925612037563    3.20642769145630   -0.94627512153600
H         5.43034885412992    3.05546911858689   -1.67808673587490
H         5.50670415778150    1.41042314897263    0.24089338097963
H         5.18347340113594   -0.62931656734003   -1.36977326060875
H         6.29679885157447    0.63999252305300   -1.86716414421513
H         0.29682647132652    0.17055131454057   -1.39065008085416
