33
 energy: -44.347237448603 gnorm: 0.129107088679 xtb: 6.4.1 (79825abcba525fcdf90b791dcacef51065a7a4e7)
C        -0.02077515079399    1.87556601965719    0.66620700101067
C         1.23950183019577    1.30604087317374    0.06772830888195
N         2.36966489701715    1.90705788833781    0.28614588017321
C         3.45912849834886    1.04634711687454   -0.25215534473184
C         3.53325761559349   -0.22047605943687    0.64762481072070
N         3.12609616449937   -1.32278944918760   -0.31169041850155
C         2.12745907229058   -0.87671837550779   -1.01561307197979
C         2.12793654150097   -1.28527723164922   -2.49243535639546
C         3.54749866224298   -0.84726936527375   -3.04445426347359
N         4.35718138583260    0.39650804630941   -2.89872267615891
C         3.67138033818597    1.67834745382391   -3.11403853154478
C         4.33326557317610    2.62991516050256   -2.09079794135557
C         4.66931972622638    1.73226991352281   -0.89490474707056
C         5.23388112045118    0.53145288507017   -1.71702604532836
N         1.18947677952865    0.07213470824950   -0.57915480901116
H        -0.38824877263910    1.22029190250089    1.44856234184808
H        -0.75892713607289    1.91882756120341   -0.13697269707647
H         0.09151145114485    2.85462115764991    1.16535782595145
H         2.97972198083560    0.68043911155033   -1.12804130651034
H         2.87426859034480   -0.13967540595350    1.52218502822965
H         4.53156773796849   -0.42559658706707    1.04817112021806
H         1.29479349407029   -0.78424979479955   -3.00064838908541
H         2.08934742586823   -2.37338319532490   -2.60808426538047
H         3.46071792367318   -1.02170944630080   -4.12809280379324
H         4.18404323525671   -1.60051662844605   -2.56282138588245
H         2.58979336232862    1.69292119074808   -2.93730507310774
H         3.76021660164497    2.05728395324484   -4.13817336314579
H         3.74440142466305    3.54366346430255   -1.96898281951014
H         5.26576356359165    3.05384206435004   -2.48595791501216
H         5.31100377091706    2.10878043440664   -0.09360576920482
H         5.16964679680444   -0.40945569187477   -1.16446413815295
H         6.23950108701923    0.83249592911948   -2.03312622031584
H         0.29028687102282   -0.13896268915389   -1.01226750618890
