33
 energy: -44.348584903487 gnorm: 0.107521082622 xtb: 6.4.1 (79825abcba525fcdf90b791dcacef51065a7a4e7)
C        -0.04685460152018    1.76471839636549    0.73274195875876
C         1.26003457435586    1.35310381137181    0.10548776593759
N         2.31230502086840    2.11023945059737    0.18077894783198
C         3.48481596955493    1.35601398867787   -0.34256050997588
C         3.75743378224094    0.23448381839981    0.70041120724968
N         3.32676349017814   -1.01768770003791   -0.03969049653024
C         2.25991138182993   -0.82567092124335   -0.75852194998548
C         2.16568578295270   -1.51932979660647   -2.12156395219076
C         3.48174513620600   -1.14461752675501   -2.92113311863532
N         4.22600943545391    0.13948492682459   -2.77636578549659
C         3.63530194444697    1.35292125924129   -3.35811588406438
C         4.01852700353189    2.53982671264776   -2.44433885308217
C         4.63633237814853    1.88659627485230   -1.20318357589716
C         5.21530510367871    0.54710077927763   -1.75736488253122
N         1.22727776109719    0.06902601014335   -0.43632021045168
H        -0.86263038596912    1.27559426069135    0.21142788834477
H        -0.10379688135516    2.83802041733448    0.54138393699871
H        -0.05905055260096    1.51493412323849    1.80873818135894
H         3.04857237440500    0.89086093679673   -1.19357147183311
H         3.30403179028785    0.56894561692641    1.64286162199540
H         4.81089548038251    0.24810644152603    0.99902089376264
H         1.23823385949329   -1.24129919278620   -2.63728501799865
H         2.15829153933357   -2.61001890344068   -2.02574658318631
H         3.24632863690636   -1.18649510369146   -3.99586939175450
H         4.28431301161146   -1.87487595469638   -2.75636636341136
H         2.54526924683772    1.23872821447444   -3.34998203913636
H         4.01542628735493    1.42036472408983   -4.38344205942139
H         3.10460302339211    3.08326217444295   -2.18751843222224
H         4.71097894913674    3.19928671730884   -2.98382076016472
H         5.39498096900573    2.52135563659889   -0.73720986979119
H         5.49517188991310   -0.19210633341831   -1.00237675242064
H         6.05100509057395    0.76289580800656   -2.43327596109448
H         0.33291373182828   -0.18166631306618   -0.85817035399613
