33
 energy: -44.342675116674 gnorm: 0.124649837693 xtb: 6.4.1 (79825abcba525fcdf90b791dcacef51065a7a4e7)
C        -0.09385028811730    1.86764001053110    0.44963964441502
C         1.29459003720908    1.33166763166508    0.21341778482814
N         2.35241085835817    2.08287216555340    0.15953758577811
C         3.48051490356084    1.30135810868879   -0.41851016554280
C         3.85582221215350    0.22527122880851    0.64032025187196
N         3.37179672402168   -1.01417989450877   -0.08813097290752
C         2.24882351047559   -0.82178989592567   -0.71557002962642
C         2.15101903486056   -1.55607509842922   -2.05690671931193
C         3.53783971452682   -1.17739970727076   -2.72403918075332
N         4.21883049672110    0.14896472610422   -2.75258718827789
C         3.45910722790115    1.27310580522791   -3.31732043684133
C         3.94809852180353    2.49497358056134   -2.50582729461825
C         4.60852846489859    1.92996871268161   -1.24350336601997
C         5.28072447271521    0.66534826283895   -1.86435936096998
N         1.23094050225364    0.00813553377157   -0.21982140792045
H         0.07325633754720    2.60763145120209    1.22487442051943
H        -0.82578404662120    1.16106546244958    0.84569887141319
H        -0.40591043887240    2.43251052901553   -0.44693637190585
H         2.96950172767174    0.79453707403498   -1.20138529170484
H         3.33239980486436    0.46723272951265    1.57473689456288
H         4.94224502873387    0.22277278453725    0.77748472804523
H         1.30351513921514   -1.20268985978235   -2.65715027091642
H         2.30436774554161   -2.62054973504675   -1.85144067588962
H         3.52854037904289   -1.44624253795476   -3.79168602060420
H         4.32226772224164   -1.79384899034308   -2.26665134110646
H         2.41682022647496    1.06414639082915   -3.05039111154274
H         3.67748928151477    1.33232459424236   -4.38929959552951
H         3.18058129288517    3.20480588061675   -2.18397130000667
H         4.66333710181597    3.03441315773941   -3.14053718183855
H         5.22838833658703    2.66986854128856   -0.72977132417427
H         5.60989823145097   -0.09235473023820   -1.14861466903362
H         6.11901532534332    0.98826892323841   -2.49269719980609
H         0.28111435443245   -0.25116250491458   -0.48681580960436
