33
 energy: -44.345402812951 gnorm: 0.116805946442 xtb: 6.4.1 (79825abcba525fcdf90b791dcacef51065a7a4e7)
C        -0.08489509569505    1.89059697905703    0.39475195797257
C         1.30749150976698    1.39827214690347    0.09523651263942
N         2.34570654579766    2.17418452142292    0.17439296684869
C         3.50022475161186    1.36575368374759   -0.30628306851138
C         3.92508509830934    0.23461001641466    0.67348633387123
N         3.35518483446552   -1.00023705841960    0.00152850134806
C         2.25208178746180   -0.86346549997244   -0.67391188908481
C         2.20553679675557   -1.61707339816464   -2.00726603985841
C         3.53337044208569   -1.23225552963394   -2.78218886364957
N         4.15126129265509    0.12495259605673   -2.78393311692085
C         3.43700591904522    1.32208285406166   -3.24924447002745
C         3.90462799461491    2.51640657138662   -2.38581241378182
C         4.63419067552767    1.90487989240184   -1.18471569562103
C         5.19576089354296    0.61485295414005   -1.86076592198610
N         1.26471541840720    0.09681525852807   -0.40262375506338
H        -0.06140601035762    2.96222278928791    0.56078597306482
H        -0.58217676463286    1.40503557569489    1.23664185610051
H        -0.66946758588345    1.62195952220492   -0.50325568016261
H         3.04284182842498    0.84798573589195   -1.11474624400323
H         3.58351606140969    0.43438476390051    1.69772824202300
H         5.00298077256661    0.05368130174067    0.74087020224146
H         1.27672620258085   -1.26596326723883   -2.47360161510199
H         2.16515677867917   -2.71076580420780   -2.03958835953120
H         3.43957726379147   -1.44523915443336   -3.85832711362132
H         4.25358704850378   -1.86580942673052   -2.24886142637689
H         2.34581966315204    1.41218131550089   -3.29896681554322
H         3.84099024540372    1.39435005626074   -4.26507468228066
H         3.14579950720969    3.24974163980548   -2.09782825707938
H         4.62725046729485    3.06744835775095   -3.00191925282816
H         5.45507690069313    2.44224761723857   -0.70203530428948
H         5.51557225897155   -0.21972363976594   -1.23151060593042
H         6.07532007088082    0.81069364631367   -2.48513746511704
H         0.34596699826017   -0.21849406104489   -0.71434889953801
