33
 energy: -44.348389557438 gnorm: 0.113475327444 xtb: 6.4.1 (79825abcba525fcdf90b791dcacef51065a7a4e7)
C        -0.03309540522906    1.87442053054381    0.46454297472139
C         1.14027057908946    0.99229692753054    0.12409633502068
N         2.27077609760792    1.47837546265044    0.53868185280790
C         3.42362834458468    0.79035828245275   -0.10558998740948
C         3.30492205156420   -0.65224949795457    0.46426262809706
N         2.89141681204013   -1.40578340707494   -0.78568177580653
C         1.94831705943783   -0.77752991716225   -1.42413531718465
C         2.06171352093170   -0.69606862779722   -2.95005467666261
C         3.55360720518008   -0.41401714993160   -3.40440316107216
N         4.36405216761774    0.60072424035285   -2.67140595456239
C         4.03623905834067    2.03250909752117   -2.62316770724815
C         4.62926137273872    2.57549812601212   -1.30253077429624
C         4.82107420713943    1.31492270350508   -0.45222650856409
C         5.26654411446515    0.29121092269809   -1.54316430003055
N         0.94804118305409    0.04164478100764   -0.87729920725741
H         0.09333405434434    2.80234929604728   -0.08269071263380
H        -0.05669591585734    2.11094406795641    1.53006499173653
H        -1.00881511292897    1.46216428582376    0.15097539352136
H         3.02023626130316    0.78339684220718   -1.08952182026115
H         2.61296158413343   -0.63184067828375    1.31656834647298
H         4.27902872319304   -1.07770838617614    0.72738959229766
H         1.45186182145441    0.12115332990030   -3.35461058389988
H         1.72520097285201   -1.65103391946430   -3.36675476181580
H         3.54460596882693   -0.00910904280675   -4.42822009547689
H         4.18531202725684   -1.30331111233337   -3.28338286071733
H         2.95450907118338    2.17886850713531   -2.52459464508868
H         4.37572436847331    2.48513989165304   -3.56136384184616
H         3.90921504642900    3.23448762269485   -0.80876767219579
H         5.58885995217568    3.08548876506189   -1.45904925635320
H         5.56808848773148    1.42476320469832    0.33866118768450
H         5.33457705881423   -0.78620686125037   -1.37198578341229
H         6.27558320812314    0.58277618386688   -1.85724637576934
H         0.17273544951762    0.15786911915847   -1.53005039852243
