33
 energy: -44.343156645324 gnorm: 0.128515247337 xtb: 6.4.1 (79825abcba525fcdf90b791dcacef51065a7a4e7)
C        -0.05690663657286    1.95583558499371    0.42446162793477
C         1.26817366091796    1.36045519202249    0.02381454523797
N         2.35127184280876    2.07412228935995    0.08524599288446
C         3.49640267915901    1.25994306812168   -0.40801836221962
C         3.87201635561775    0.24894371625590    0.71302359794856
N         3.38833616485909   -1.04547704376738    0.08717272247452
C         2.27485179891663   -0.86054762593383   -0.55913694727704
C         2.28998857749975   -1.55409603211646   -1.92540416013764
C         3.61611134929421   -1.21218925489739   -2.72304474979697
N         4.16665751374375    0.15493109701350   -2.95039230254512
C         3.34720536033110    1.34528606317343   -3.21750552803867
C         3.90450000662435    2.55288307781886   -2.42900911520184
C         4.61641466842946    1.87920446719796   -1.25079243025607
C         5.20077925930675    0.65304596043353   -2.01996592191092
N         1.20655911351456    0.03868750002916   -0.41506868168319
H         0.04630320552304    2.62143210666069    1.27465566716890
H        -0.80973690100207    1.20928405527669    0.68474020884929
H        -0.28233154653198    2.56693522852510   -0.46775450871225
H         3.03360603258721    0.55556348493667   -1.05652754231669
H         3.33377849776062    0.37962824751221    1.66111241820274
H         4.94208096866765    0.06777600044600    0.85888262303965
H         1.48277488457400   -1.05648011308087   -2.47696627673840
H         2.26683490829737   -2.64555855697769   -1.84166746536126
H         3.43156634117297   -1.58499927232606   -3.74245072927015
H         4.51951363936231   -1.73200881827228   -2.37925327996272
H         2.34444550206026    1.18787447078551   -2.80401822251147
H         3.43742916870939    1.46406423169937   -4.30290329653468
H         3.06231029387125    3.13054577860097   -2.03714413291371
H         4.58065360300674    3.14623543788396   -3.05842727134785
H         5.38404083137705    2.49453591789309   -0.77359655103719
H         5.63606000213893   -0.09885616587254   -1.35669107661327
H         6.05478744916146    1.01121854703409   -2.60665166249495
H         0.29595363350391   -0.41644599155480   -0.48096521416406
