33
 energy: -44.350614782883 gnorm: 0.120431813641 xtb: 6.4.1 (79825abcba525fcdf90b791dcacef51065a7a4e7)
C        -0.02726233442912    1.82674743063198    0.60981372554541
C         1.28628616100323    1.35454694483570    0.04196626844798
N         2.31152189308616    2.15141162818757    0.03224121539568
C         3.48755836425909    1.34678426288013   -0.40023441835218
C         3.78311573920794    0.28656352643150    0.69909183880458
N         3.39804121910465   -1.00881668096254    0.00998467975762
C         2.27260185973133   -0.88330713635774   -0.62985601367335
C         2.21181920666489   -1.52587885014780   -2.01957960852568
C         3.57103787448176   -1.14395797886383   -2.73957504112402
N         4.21385949360066    0.18816229827936   -2.92942227953347
C         3.47757559455501    1.39467587033061   -3.33192354291775
C         4.01811808172178    2.54923796552336   -2.45705518128528
C         4.65747270200988    1.84074416471795   -1.25783789062768
C         5.20737564225616    0.52286298793889   -1.88821117625325
N         1.24168410415211    0.05379043328927   -0.45756132496093
H        -0.19214003866121    2.89752989706434    0.55745771977307
H        -0.18863119341535    1.48737076482912    1.63481182394803
H        -0.83580535044655    1.29939613903136    0.07272193050970
H         2.97167130809880    0.84296211969843   -1.18184767600574
H         3.14633227008857    0.37891940835680    1.58882665949138
H         4.84577003948353    0.23998123649318    0.95934324928392
H         1.27299367400811   -1.23249724328496   -2.50534720613818
H         2.21914551539936   -2.61650209889208   -1.92301032539493
H         3.48458434658459   -1.57375231511813   -3.74954302763291
H         4.24504786190746   -1.68868354943539   -2.06613221090063
H         2.40517181302082    1.31411707650907   -3.12041018266942
H         3.58949865570476    1.61944953442175   -4.39836009916560
H         3.21624063671954    3.27034060450923   -2.27391748324042
H         4.87231447489865    3.02400771583067   -2.95741518228781
H         5.39131205539791    2.39967415121624   -0.67074701250349
H         5.42394441257460   -0.29601812998101   -1.19734842874920
H         6.05999521574014    0.84173545606497   -2.49909411211950
H         0.30075272892975   -0.29615611874445   -0.63888077893286
