33
 energy: -44.340517848635 gnorm: 0.123457155885 xtb: 6.4.1 (79825abcba525fcdf90b791dcacef51065a7a4e7)
C        -0.11109070846735    1.80628395694204    0.54820599541578
C         1.23370513228749    1.26918782702166    0.13121008750337
N         2.21870580612194    2.10086801515549   -0.02460376712196
C         3.36578951959599    1.29556169571950   -0.52779642719844
C         3.81623267141058    0.37465974968954    0.64223817956671
N         3.41183651688789   -0.99387283631378    0.12770609634468
C         2.33186181800693   -0.88609396897930   -0.58909295736281
C         2.19306661037093   -1.56134281821645   -1.95755905538751
C         3.47267419904782   -1.11019736141133   -2.77658562830259
N         4.11123587343756    0.23354516203667   -2.87857105250934
C         3.57115067428386    1.50143040927912   -3.38903280738810
C         4.26116017666227    2.60304233086408   -2.55181568086661
C         4.59343038005760    1.84607527687049   -1.26128970362610
C         5.18833618496194    0.56323702790315   -1.92234010343814
N         1.25949433683390   -0.09730458802104   -0.14359542968244
H        -0.02611132875956    2.84708377852068    0.84148938094972
H        -0.47044005290999    1.15104998285063    1.34405398621381
H        -0.93306305892911    1.82892769823317   -0.18946432519473
H         2.90518795067347    0.66718488475036   -1.25159492544217
H         3.35203008099003    0.62863766049077    1.60435149227102
H         4.89993719593547    0.38782954352727    0.79890960271602
H         1.21440632922323   -1.51992871538290   -2.45146715344391
H         2.32863492262084   -2.63585454494792   -1.79667353524172
H         3.20480472445281   -1.41879468302964   -3.79895852903924
H         4.28364248069657   -1.78299013400618   -2.46963127382666
H         2.49001900211145    1.61307921631866   -3.24773052048049
H         3.88903942783393    1.54023783020921   -4.43678164237328
H         3.53288563651864    3.37065005498177   -2.27445229764311
H         5.15758696246240    3.08281833722310   -2.96612464946888
H         5.28615872243566    2.37139981543388   -0.59814552434812
H         5.22815823009281   -0.28185090902739   -1.23024167361096
H         6.16603526273636    0.64747120797444   -2.41103925111832
H         0.38120567080066   -0.48907913599268   -0.48390840617218
