33
 energy: -44.348302825098 gnorm: 0.118959812764 xtb: 6.4.1 (79825abcba525fcdf90b791dcacef51065a7a4e7)
C        -0.08542730435286    1.80638233154642    0.71831642255888
C         1.19640368087745    1.35511319815871    0.06708743214252
N         2.20627426387214    2.15366514184574   -0.10224192568299
C         3.37527759595400    1.31940178763801   -0.49588901537805
C         3.72550815745602    0.36803641617979    0.68401898630795
N         3.35164720944840   -0.96608287403065    0.06635024808970
C         2.27330195063105   -0.81736775005322   -0.64556115242424
C         2.20900583979946   -1.47128038079843   -2.02982589744080
C         3.60935383116705   -1.18731341120193   -2.71547933000906
N         4.27009491627824    0.13316088192100   -2.92422535105060
C         3.63524478697992    1.35730302082984   -3.43239617351448
C         4.14221759143913    2.49521086718304   -2.51656934953367
C         4.62529437806679    1.81358132154760   -1.23170441740492
C         5.25277174158364    0.55193887244101   -1.90334793282578
N         1.19527621945714    0.00604757157428   -0.28434586031675
H        -0.21547939909952    2.86445274602656    0.91850222219370
H        -0.18103738726499    1.36333785919539    1.71149709305191
H        -0.85758278628844    1.45064754118823    0.01295306194526
H         3.03288764181641    0.72683888020346   -1.30985081385189
H         3.07922326268814    0.60036709923079    1.54075064903420
H         4.77582450471927    0.30515667204397    0.98736133846388
H         1.43062669706865   -0.93948079917086   -2.59085301672391
H         2.03995774690669   -2.54979303215428   -2.11391849300019
H         3.45683562849175   -1.48278935045110   -3.76508158267020
H         4.24347247287900   -1.92985776184012   -2.21441836779151
H         2.54405673936954    1.25494421182922   -3.42196491676083
H         3.83412671024863    1.48085295532587   -4.50268505739187
H         3.33912057935606    3.16892307034956   -2.20402666659904
H         4.99173571938599    3.06766479545480   -2.91157995004073
H         5.29539236198811    2.42553710176292   -0.62172290440433
H         5.42768234581081   -0.25343513779816   -1.18533773834686
H         6.21235062628154    0.83401096570507   -2.35219249949641
H         0.23579632110582   -0.33927729732577   -0.31333307034981
