33
 energy: -44.330801364145 gnorm: 0.136250713120 xtb: 6.4.1 (79825abcba525fcdf90b791dcacef51065a7a4e7)
C        -0.00757762408101    1.96063609549388    0.72178299338364
C         1.24450454252117    1.41483040009728    0.08521400339294
N         2.32505099234123    2.12619842021647   -0.02690706802231
C         3.45046145422366    1.23104735111486   -0.41378949622608
C         3.66509027996954    0.22138520741332    0.75002200717784
N         3.24393705514527   -1.07210751696720    0.07870428165694
C         2.20731749212885   -0.83994774379221   -0.67181836529258
C         2.29102496189924   -1.39988750411199   -2.09568110977041
C         3.73700886323294   -1.23715732565433   -2.72367934981355
N         4.31119162210209    0.11245839368700   -2.99323008994619
C         3.53897039744535    1.30464364423200   -3.37027776649126
C         3.82766841283660    2.43223794384122   -2.35254547873768
C         4.63092235937385    1.78122924673395   -1.22124945915448
C         5.29576261530131    0.60980846620199   -2.01013176870183
N         1.20726474739959    0.08817490927278   -0.34149793938916
H         0.06301350284571    2.93580601320844    1.19142266709370
H        -0.29670265047086    1.19146857792241    1.44054970907547
H        -0.79182097901870    2.00577004132725   -0.05489845953117
H         3.03255270345243    0.76870479409959   -1.27546642229706
H         2.91098413304721    0.50379882499862    1.49649191199820
H         4.64936159994152    0.05604661129294    1.20058608076432
H         1.51149657874563   -0.85175616025505   -2.63911817257112
H         2.04414434389846   -2.45673655217668   -2.24045130367751
H         3.85592501894586   -1.79604023829303   -3.66481778155449
H         4.42524913913385   -1.67863849805180   -1.99158622320802
H         2.49738553153797    0.97652259076871   -3.27692342099111
H         3.75503815095157    1.48840467610500   -4.42852325230024
H         2.97710264091573    2.90286359356046   -1.85096274878600
H         4.41732934082090    3.17646020137230   -2.90377242325987
H         5.42005241525808    2.39626558367861   -0.78011152009336
H         5.84227782587119   -0.16698972751187   -1.46914624426286
H         6.01639130744217    1.14580218001139   -2.63879922809557
H         0.36417464208693    0.03954414495728   -0.91379622346340
