33
 energy: -44.336878836203 gnorm: 0.126339451400 xtb: 6.4.1 (79825abcba525fcdf90b791dcacef51065a7a4e7)
C        -0.01339208250722    1.98204493150609    0.32876535131455
C         1.16424084688249    1.07377271022451    0.08575099576445
N         2.28988579265217    1.50695999485325    0.56686271186947
C         3.39790640359602    0.76466342519203   -0.09556336149863
C         3.33770157097751   -0.65403284696030    0.53974497384667
N         2.88719966554443   -1.42174811059432   -0.68859628950025
C         1.94734130021777   -0.85751192108237   -1.38864365038188
C         2.15024306594210   -0.84994698346791   -2.90742548072220
C         3.52412800271472   -0.29177073335931   -3.46654246455515
N         4.38157588160778    0.72404031990492   -2.79073400438027
C         3.96248361040533    2.10201755522138   -2.49860962516076
C         4.59066010492443    2.51842963067331   -1.14857638878657
C         4.83060284217319    1.17359771507169   -0.45379979298467
C         5.20506597554234    0.25339439577674   -1.65778390381199
N         1.03187483624097    0.07746146398340   -0.88033794690980
H        -0.05642390282399    2.54638891579397   -0.59652652112334
H         0.20953407951103    2.67733811935880    1.14037415591075
H        -0.90620475500928    1.35975862197212    0.51838095956306
H         3.01942478867655    0.70475890793701   -1.08756064430698
H         2.70523917050284   -0.70113009208598    1.43608420154433
H         4.29879645873436   -1.09167757157848    0.82939750409930
H         1.41889856473784   -0.20978195474389   -3.41611032046057
H         2.09556291272656   -1.85878693812241   -3.32943305741365
H         3.22722103985564    0.02011849946419   -4.47985588002205
H         4.15175308003541   -1.17868141382619   -3.62151619568167
H         2.88370210501904    2.29490221032817   -2.48118943078937
H         4.34484178294278    2.71132044439172   -3.32498068017966
H         3.84997260152036    3.09079046069630   -0.58260732985639
H         5.46459382586912    3.17832581187517   -1.22728347555178
H         5.65512128603337    1.14871914916172    0.26393903462975
H         4.99154885961097   -0.77072451298294   -1.34100234252076
H         6.16778326652158    0.50940930153032   -2.11544047479100
H         0.26453870961229    0.28811502241112   -1.51870426507424
