33
 energy: -44.342426302987 gnorm: 0.123285993878 xtb: 6.4.1 (79825abcba525fcdf90b791dcacef51065a7a4e7)
C        -0.01209813356369    1.88282628382273    0.38101270322580
C         1.25932368846603    1.16202529337148    0.01390755885950
N         2.36429131648106    1.57149163043799    0.55941657736599
C         3.48099523986863    0.76652138200405   -0.00848958003212
C         3.31273057211297   -0.65887766704293    0.59139785888596
N         2.83784440911186   -1.45940340972153   -0.60643460504003
C         2.04457560529767   -0.77021853660891   -1.37292748465920
C         2.07823614686388   -0.90027080536848   -2.89932127169102
C         3.57270013714713   -0.54029568873951   -3.28497353963919
N         4.34465762742008    0.60497563629398   -2.72262020282755
C         3.72842307681782    1.93455637962507   -2.61186695695315
C         4.45369296281808    2.59056128976644   -1.41427119183926
C         4.78390335289972    1.41621646134626   -0.48651301772010
C         5.34459929975109    0.52368144962186   -1.63784955558179
N         1.13451333757485    0.24021384643121   -1.02444243979479
H        -0.83387881835697    1.17568802997143    0.41467134939095
H        -0.25560373891318    2.63202588608271   -0.37479316926510
H         0.22036105059626    2.39999064277881    1.32906995357555
H         3.14554497969534    0.55157260291749   -0.99447418327369
H         2.62401838640201   -0.66631045182053    1.44654177888381
H         4.21745779560392   -1.21026024529349    0.86813016945624
H         1.44413483265031   -0.13560491799642   -3.36476505959542
H         1.90384326402813   -1.93397675423177   -3.21535529818930
H         3.53116821547272   -0.40611539736422   -4.37699161149334
H         4.28462164121504   -1.34924805152271   -3.07687620250366
H         2.65518833354971    1.76225156883212   -2.47131187031002
H         4.03865984210214    2.35312349151834   -3.57565719806222
H         3.76365294475711    3.24055946441517   -0.86848458626857
H         5.36518870097993    3.12186759265439   -1.71809195325869
H         5.46381121580101    1.57513032958271    0.35495611743707
H         5.38280087368789   -0.55005441385758   -1.43687296442176
H         6.30458368698576    0.90661657890751   -2.00337439565547
H         0.36233476015867    0.42809525647197   -1.66407672327392
