33
 energy: -44.344451841413 gnorm: 0.131600190458 xtb: 6.4.1 (79825abcba525fcdf90b791dcacef51065a7a4e7)
C        -0.07492103750353    1.97246911955329    0.39733402523756
C         1.25206716316718    1.30485543631990    0.14390159331935
N         2.28976320327656    2.07278198395187    0.00364470670701
C         3.44987392707829    1.23021704445306   -0.39853635713254
C         3.81207223029905    0.21321841005217    0.72149336586253
N         3.43001529939081   -1.08354814642165    0.03331463613422
C         2.31442728807667   -0.88603454619520   -0.60560187989992
C         2.24956214552068   -1.52626674451072   -1.99622040398625
C         3.58586352943947   -1.18170678912371   -2.77552100732277
N         4.07920767273009    0.22503075240416   -2.81434242198745
C         3.42081446610379    1.43643227015506   -3.32308695803454
C         4.02466049116661    2.53814276979815   -2.42186643988251
C         4.61412156663951    1.80898816488610   -1.20954258877035
C         5.24232764886220    0.61136037012817   -1.98904198812579
N         1.26120662694098   -0.03940573954656   -0.22537210585677
H         0.07007959938040    3.03692490679424    0.24763564268607
H        -0.55111222496974    1.70345253548566    1.34216711427698
H        -0.81128354143086    1.65873449967399   -0.36401323350700
H         3.02249908810782    0.71333854831169   -1.22381380291856
H         3.27309270070487    0.42889845578052    1.65349875118335
H         4.88949775892164    0.12814338580801    0.89770729630509
H         1.31097406961244   -1.13042665801375   -2.40340509264491
H         2.27838682539611   -2.60168166095035   -1.79252877460411
H         3.47381733514039   -1.57381165387386   -3.79822924869646
H         4.37771174968082   -1.68541442948307   -2.20649054340379
H         2.35386311076786    1.46624809039224   -3.07408230665268
H         3.55389639662769    1.66295138246474   -4.38671997480990
H         3.29353642900433    3.26434708750474   -2.05495940979582
H         4.80656897105894    3.06745866554045   -2.98210008588705
H         5.40288364428375    2.29833084893447   -0.63161806280604
H         5.72797523125539   -0.20219006926164   -1.44402660803400
H         5.91596701988949    1.06983734553263   -2.72240861804121
H         0.37185433297883   -0.51684621911505   -0.37300101109900
