33
 energy: -44.337525264731 gnorm: 0.126555033500 xtb: 6.4.1 (79825abcba525fcdf90b791dcacef51065a7a4e7)
C        -0.05049441182216    1.85867443109498    0.54643148320235
C         1.19513944521506    1.21617141231408   -0.00712056959068
N         2.33336578873240    1.63793224007008    0.45413298486491
C         3.37936192560582    0.74044854942340   -0.10972628973771
C         3.32965754995014   -0.71258454178640    0.44359524183344
N         2.88676943666514   -1.47505597468018   -0.79076629198803
C         2.00055186347944   -0.77502579994625   -1.43600943641134
C         2.03019543352401   -0.62644192565055   -2.96079425244681
C         3.57804797958225   -0.47996261414334   -3.26808678399775
N         4.47211822363615    0.59317371592268   -2.74576228525085
C         4.00349680400489    1.98582775845486   -2.71921145258564
C         4.52519253022848    2.56506522622170   -1.38395417543290
C         4.73772839885498    1.34303848341173   -0.48376582802666
C         5.29934053313849    0.34710272709827   -1.54644090122545
N         1.08475438668143    0.12197338123900   -0.86387637736403
H        -0.06286271108083    1.53917364898344    1.58290009894041
H        -0.97833855024016    1.47530068743510    0.11751731452066
H        -0.18486292418019    2.95332336201313    0.60965811846056
H         3.05164826762700    0.53031363486398   -1.09934367568061
H         2.62314410053378   -0.76747484029830    1.28233039364901
H         4.22038829871502   -1.24582536813627    0.79200280310946
H         1.39981340366191    0.24985518826821   -3.15613546679477
H         1.66664275468413   -1.45360043594169   -3.57924119862873
H         3.76742083522135   -0.54119553184070   -4.35096312810551
H         4.01860829172588   -1.37314746922433   -2.80692727871332
H         2.91589008371973    1.89771714524752   -2.61613070876306
H         4.31849484496447    2.50524702590808   -3.63097719277018
H         3.81563404887258    3.31856917699883   -1.02998464107472
H         5.48728599306167    3.06759646912665   -1.54904943692770
H         5.53796614212688    1.58807813662259    0.21992000804831
H         5.30090552579545   -0.68520389048716   -1.18713565946008
H         6.24572527940385    0.81439351359652   -1.84277346201153
H         0.19591221802262    0.13284097612562   -1.36440880117529
