33
 energy: -44.345150200932 gnorm: 0.115118072610 xtb: 6.4.1 (79825abcba525fcdf90b791dcacef51065a7a4e7)
C        -0.05344666912736    1.83967120925315    0.44477961971381
C         1.29903453038664    1.26247972336687    0.11541918858160
N         2.42829281218185    1.87119547990917    0.31650890967979
C         3.51832482601923    1.01355229710050   -0.22552479883318
C         3.61459674402091   -0.24326353306652    0.68611443013595
N         3.03297874871400   -1.27850465167961   -0.25789683665894
C         2.08057977358506   -0.83116368010036   -1.02247825868495
C         2.17199222745778   -1.14937322237925   -2.51857685737479
C         3.60941343377964   -0.86273894912637   -3.12139806441778
N         4.27406950162936    0.44804754025186   -2.86865881702595
C         3.57683615031750    1.73970933241906   -2.94126539167855
C         4.22200990760712    2.61387589396332   -1.84118443578577
C         4.79189515367985    1.63374993616877   -0.80995030854962
C         5.24429876851287    0.47638418511703   -1.75462486135604
N         1.10455397012528    0.09364533107258   -0.61907938248263
H         0.03593836082801    2.91671205348332    0.53694384896120
H        -0.35409105183167    1.46680383207605    1.42580990152436
H        -0.83329283498063    1.52479978007297   -0.27146386640589
H         3.09572648904451    0.65410678203816   -1.13277617356859
H         3.03479181137010    0.04457733031954    1.57303309736040
H         4.57688023958253   -0.69638388471841    0.94655115920312
H         1.44168315495370   -0.64444584538562   -3.16288524212157
H         2.00618303701136   -2.22242184526676   -2.65968791102360
H         3.56089100187516   -1.06174498474334   -4.20319050366205
H         4.35767229925555   -1.52643780499145   -2.66956496755550
H         2.49587478196472    1.61019131580551   -2.81467512983014
H         3.71296387093953    2.18624436524511   -3.93243268837405
H         3.55972905644065    3.40708067323890   -1.48237233631883
H         5.01035192269260    3.11221559253251   -2.42048775660960
H         5.67776338628202    1.98667917282566   -0.27490166242890
H         5.23881481658848   -0.52280705600741   -1.31151489155227
H         6.16500120048222    0.72182784408519   -2.29673388327415
H         0.19424640381410    0.05948281344145   -1.07827895289235
