33
 energy: -44.348567703613 gnorm: 0.127021910722 xtb: 6.4.1 (79825abcba525fcdf90b791dcacef51065a7a4e7)
C        -0.10630087291993    1.88142936295839    0.50829351017019
C         1.26472156087541    1.35040201903263    0.17792829313573
N         2.29621240805571    2.13827310858165    0.13943111008867
C         3.40123483911717    1.28834898932825   -0.38409215134273
C         3.86113990796912    0.24470485746627    0.67384672826445
N         3.34496857420747   -1.04835726439028    0.07158560122295
C         2.22322463230170   -0.91168846497665   -0.57244446001572
C         2.31110694998967   -1.63806074666058   -1.91876709184103
C         3.44468827563105   -1.09723100902191   -2.88532227784233
N         4.18941870334966    0.19468329588350   -2.87348776004855
C         3.62403323464657    1.43140023384285   -3.43086262211605
C         4.10712570788556    2.53879326779078   -2.46603268985017
C         4.58177989906135    1.85915947920124   -1.17697829581766
C         5.16998906925819    0.57134814923056   -1.83434157433391
N         1.22843576177625    0.03746000630333   -0.28935248959033
H        -0.15762947890135    2.96167917456298    0.42506710694514
H        -0.44813613681154    1.59702996134259    1.50534073755637
H        -0.85236100239889    1.59907862092590   -0.25589307859081
H         2.90456499759606    0.82317526986426   -1.20129957599748
H         3.42846448010972    0.43013806025035    1.66584338002267
H         4.93485007148842    0.12393497059967    0.85188042643270
H         1.35330386400240   -1.57664868311455   -2.45006561500911
H         2.55618995823224   -2.68023443006969   -1.68931837764164
H         3.06452443068715   -1.09229993160983   -3.91861016264399
H         4.25952089300772   -1.82796420567360   -2.96667000385187
H         2.53188880308578    1.33924423976660   -3.43316644677104
H         3.99478135486555    1.56568034527790   -4.45304244273775
H         3.31416200393882    3.27481574833818   -2.30473995672271
H         4.96034312638934    3.13115320704207   -2.82176807730694
H         5.27966515525374    2.49868419389560   -0.62965485745884
H         5.30274313191211   -0.35338975414027   -1.26689481369536
H         6.04680075442079    0.80500507237680   -2.44950290433634
H         0.31498522701288   -0.33701817262138   -0.54638444569112
