33
 energy: -44.342823341454 gnorm: 0.125812398021 xtb: 6.4.1 (79825abcba525fcdf90b791dcacef51065a7a4e7)
C        -0.03374251186131    1.92700793132177    0.55566211888456
C         1.21992648638803    1.25696040745863    0.05547810198891
N         2.36284849375038    1.65337098480351    0.52747828249044
C         3.39307665617352    0.75512517978558   -0.06354335495864
C         3.37155066376172   -0.68890620676251    0.51460056127060
N         2.85745901514179   -1.42523307384483   -0.70797601081852
C         1.99113450481404   -0.70417357494318   -1.35706580411545
C         2.14512736348397   -0.97378769429521   -2.85757206334044
C         3.55244365598151   -0.43851557768292   -3.35222038936156
N         4.44108137821640    0.61467278163647   -2.78219993695058
C         3.91531345096275    1.98698841070738   -2.77151575482052
C         4.39207744163243    2.54106475868791   -1.40905842916275
C         4.73378536960482    1.34441268693209   -0.51456447984002
C         5.29321167970323    0.37182562097297   -1.59977926217821
N         1.12178266412498    0.33287090435074   -0.98370958927098
H        -0.93864794739436    1.54473485334314    0.09575522540162
H         0.00131133249065    3.01737710263752    0.59693958938759
H        -0.16189224884193    1.51060053773865    1.57079330535754
H         3.08455693636430    0.61256034140208   -1.07120715959620
H         2.64633465435546   -0.88645216600192    1.31503056074271
H         4.29368712412536   -1.14759900995961    0.88662224276065
H         1.35611266502422   -0.59564008471477   -3.51930954454223
H         2.13047356613990   -2.06439873503491   -2.95344280708288
H         3.50659770333409   -0.19496022617497   -4.42497928782503
H         4.25648311682251   -1.27793138557668   -3.28702687895034
H         2.82217453755493    1.95781385113159   -2.84549989900780
H         4.37311463921281    2.64877259147829   -3.51501872917655
H         3.72619110893697    3.27452512498898   -0.94519729156198
H         5.34115446501151    3.04114415243137   -1.64270630571388
H         5.37746224761549    1.62496650801051    0.32362897142812
H         5.15389499649115   -0.67973635169364   -1.33602192185769
H         6.33053785460546    0.60315425556167   -1.86859000600429
H         0.18137146616772    0.22788901649828   -1.36488773010108
