33
 energy: -44.346528496464 gnorm: 0.122485516331 xtb: 6.4.1 (79825abcba525fcdf90b791dcacef51065a7a4e7)
C        -0.06654133689643    1.95504828474556    0.52873385660820
C         1.23415981899503    1.30212266168372    0.13796752293321
N         2.31534140189794    2.01407532340942    0.23978117871686
C         3.47222673226818    1.24269749830213   -0.29324296734754
C         3.85512670580781    0.07110106220996    0.65580381723821
N         3.32255951441852   -1.11452186525476   -0.12639271311053
C         2.23314605571466   -0.82623943472581   -0.77588026682966
C         2.24938728333007   -1.42545533761383   -2.18605795876104
C         3.62317349683640   -1.10402132107143   -2.90794712521650
N         4.25341297974414    0.24686393520695   -2.86655556243644
C         3.47724576367221    1.43540851130431   -3.24697965680754
C         4.03228989822759    2.55068548000839   -2.33118614583672
C         4.62486252051034    1.82396405849552   -1.11891820106239
C         5.23578534891535    0.56443692123188   -1.80952605629694
N         1.17722453742762    0.00572189487500   -0.37153037348607
H         0.04250987705586    2.53639934980327    1.43793112901991
H        -0.83286393001204    1.19482646395012    0.69198213950221
H        -0.38170814988770    2.77884242777029   -0.13635401431370
H         3.04924409545857    0.73385954196126   -1.12574829097766
H         3.28511901837375    0.12408742866899    1.59278542423476
H         4.90412919197947   -0.16086093849316    0.86775259579716
H         1.37864002905884   -0.94435272036266   -2.64841691592960
H         2.08662581250541   -2.49853742447490   -2.33042520151270
H         3.40349759921362   -1.45517775759449   -3.92807671226068
H         4.44347939692421   -1.72361225315458   -2.52356976316252
H         2.41191247547850    1.24227254027220   -3.07656552900583
H         3.47827137981758    1.68659885997155   -4.31339386187943
H         3.24216403152764    3.29706962882757   -2.20811020758515
H         4.80648108272091    3.18206467332067   -2.78660490641662
H         5.32615227608025    2.37388172478251   -0.48537114833506
H         5.33592341441384   -0.30968051655874   -1.16095013311560
H         6.22232887556725    0.76955958089387   -2.24135276970957
H         0.28888502102790   -0.16379035009730   -0.84355760079632
