33
 energy: -44.339799287995 gnorm: 0.133345608470 xtb: 6.4.1 (79825abcba525fcdf90b791dcacef51065a7a4e7)
C         0.06253827363895    1.94731728474813    0.38477942720153
C         1.28064813978584    1.12694262183819    0.04709986796391
N         2.36511506407413    1.67634766909226    0.50347889780302
C         3.46473292677558    0.85629997201716   -0.07607653500770
C         3.46415193411037   -0.56589281170580    0.55424699223932
N         2.92800626580348   -1.39245209602921   -0.59922971314386
C         1.94747154957606   -0.87572179303956   -1.27989408129176
C         2.12504935444734   -0.90121183662188   -2.80164996757678
C         3.55582531809516   -0.51025404429248   -3.36000872090665
N         4.36324949536919    0.59070257456225   -2.76020311589978
C         3.73910077871038    1.91916289561604   -2.68652946900737
C         4.41662693552878    2.56568530495158   -1.45626057664715
C         4.81782421865891    1.39218808855773   -0.55581350000517
C         5.25970054448513    0.33333532238287   -1.61418519968223
N         1.02154037117033    0.08347599671165   -0.84032633012487
H         0.22783890500056    3.01890005156247    0.35499716061391
H        -0.21877896335947    1.76950200105954    1.42452933917187
H        -0.75839901143216    1.72751644973358   -0.32095307416477
H         3.10134160279823    0.73264203459951   -1.06781790971286
H         2.95610554604266   -0.58835453106573    1.52740431762704
H         4.47637645791062   -0.91653611748734    0.78137175320111
H         1.36472032509483   -0.26750471568402   -3.27467360039800
H         2.07803214311743   -1.90462663860959   -3.23729487765133
H         3.37977185515708   -0.40325439318551   -4.44157654938729
H         4.21857175902727   -1.35219610342597   -3.12243478259671
H         2.65131866871038    1.95165790379532   -2.55633097763434
H         3.94940499749330    2.37239738890316   -3.66156153719243
H         3.62534254560426    3.17349392185503   -1.00795981517568
H         5.27927043058551    3.22278423604426   -1.62797289272576
H         5.55010349430935    1.61402962650869    0.22530878579906
H         5.04568400390584   -0.68577473048488   -1.28196347218855
H         6.25384453662872    0.50357525554075   -2.04373593657130
H         0.18923211350364    0.28125426370510   -1.39605820708756
