33
 energy: -44.341712251928 gnorm: 0.122994980406 xtb: 6.4.1 (79825abcba525fcdf90b791dcacef51065a7a4e7)
C        -0.08902610360132    1.76887187166742    0.59719107540531
C         1.22500847553571    1.18247085342332    0.14966378335856
N         2.36530354989243    1.56823258362098    0.63660449825586
C         3.41360598621511    0.78778716958065   -0.07718057339941
C         3.24715177848387   -0.64424559272419    0.50721276187762
N         2.80091703130352   -1.40757241689376   -0.72541356706689
C         1.92188117240525   -0.71625350951958   -1.38959476488482
C         2.20972050891188   -0.64426224607647   -2.89288794707384
C         3.76353869586580   -0.64214597652155   -3.20494072085433
N         4.58888181624160    0.55690494994667   -2.88107088660256
C         3.92702778216182    1.86732712758264   -2.81369719114432
C         4.33138361179951    2.51300683172233   -1.46826471386597
C         4.75317490186053    1.38936660427588   -0.51517255529308
C         5.33571140188119    0.44287097903015   -1.61124362110120
N         1.03894362237912    0.23648640937608   -0.85730095967520
H        -0.89837792961220    1.04777313823071    0.55888773145577
H        -0.43085521582204    2.52287940521330   -0.11447108877791
H         0.01347913304063    2.26202381491196    1.58035059007818
H         3.06184070064226    0.75293356033718   -1.08014712449751
H         2.53411028291874   -0.62576071847441    1.34200673997998
H         4.17101721961542   -1.06836311802285    0.91431452404300
H         1.65804376412078    0.22414042987218   -3.27363179344484
H         1.85011168397245   -1.48109706162651   -3.50052875977881
H         3.73168935884240   -0.59789824614312   -4.30460452572067
H         4.26070183019268   -1.54301408369460   -2.82309504128266
H         2.84341570393524    1.87556484220913   -2.97799721683806
H         4.24917868908537    2.35582861531200   -3.73993797863087
H         3.51539147951568    3.13073607206232   -1.08212575119828
H         5.22901610638385    3.13033285159240   -1.60458205232250
H         5.53649240136859    1.60999387206025    0.21512596822590
H         5.34837074148944   -0.63227658947999   -1.41462952015784
H         6.31772627834155    0.87063772378350   -1.84465344519347
H         0.25549158154671    0.37828250149514   -1.49510027710059
