33
 energy: -44.342278661282 gnorm: 0.127569937132 xtb: 6.4.1 (79825abcba525fcdf90b791dcacef51065a7a4e7)
C         0.01771164282290    1.87957829021117    0.58194379482651
C         1.30361392111460    1.23999606549639    0.12562854033800
N         2.26623954644871    2.10891706186598    0.05836458541891
C         3.45362420602490    1.33055091042251   -0.39084135295355
C         3.75244578961193    0.29751208274388    0.73320350687156
N         3.40428412927858   -0.99384057044256    0.01741531515072
C         2.31251131996095   -0.88982827241815   -0.68185294510531
C         2.27967711252010   -1.62247133899048   -2.02724532503366
C         3.58128961989827   -1.14779132853590   -2.79680112746493
N         4.17808671810747    0.21393499132258   -2.91230306040178
C         3.38517291813900    1.40313906507742   -3.25417676240078
C         4.13645035315661    2.54743756380921   -2.53531820333234
C         4.59752458633417    1.94793597388426   -1.20232596503863
C         5.13454044990331    0.64387011682396   -1.87135565572321
N         1.22364134746390   -0.06352372529229   -0.36214725131937
H         0.27858114495547    2.87975334997410    0.91072619165395
H        -0.56160661923754    1.47230355552361    1.41281994229342
H        -0.72029046532751    1.90667376001026   -0.23959592768141
H         3.06175756830713    0.77508655833606   -1.20864046358233
H         3.17634246980335    0.44497578443440    1.65624753157670
H         4.81509490034668    0.30135733827115    0.99758382971127
H         1.33857814066151   -1.47181390801883   -2.57045004577941
H         2.31758731302656   -2.71425011014819   -1.95362265909570
H         3.31237577931036   -1.48336876198517   -3.81036210501144
H         4.30450540388479   -1.87191790699917   -2.40039189090428
H         2.30966124821826    1.30886434905973   -3.06532651147542
H         3.42636838479510    1.55077605932277   -4.33900078303721
H         3.46989231536958    3.40360143746755   -2.39668315947958
H         5.01464257961741    2.81477403251171   -3.13758687349127
H         5.28612819076948    2.70138253480455   -0.81022650771289
H         5.28239462365478   -0.17994831751517   -1.16834641945814
H         6.10023605183730    0.79308059247318   -2.36833250365513
H         0.31448452066737   -0.48543975591814   -0.55217861082553
