33
 energy: -44.337734693246 gnorm: 0.123133680752 xtb: 6.4.1 (79825abcba525fcdf90b791dcacef51065a7a4e7)
C        -0.03351896247506    1.89030026724032    0.53552500965990
C         1.29046853801877    1.28552351370946    0.14547899796026
N         2.33788909011949    2.04959198224695    0.07263801898251
C         3.53716780982094    1.24605453560441   -0.29284835125010
C         3.72447941712313    0.09817838279384    0.74022235998642
N         3.24421733507117   -1.10797207290542   -0.04444977303219
C         2.24476464760604   -0.88971040782322   -0.84770483930950
C         2.15842749927062   -1.55421525104233   -2.22571203113551
C         3.52159716575606   -1.06749717823331   -2.87116253225444
N         4.14519495123834    0.28682241437652   -2.84377120504309
C         3.44599134502012    1.53581110932059   -3.17684447694170
C         4.07364403946943    2.57665633843093   -2.22118357109128
C         4.73228819184544    1.79916681548353   -1.07638759237225
C         5.24999544772477    0.58444933035471   -1.90886290540564
N         1.26466217566061    0.05959426082909   -0.51778279110552
H         0.11230844276205    2.66241371699872    1.28323892572654
H        -0.68332057450379    1.09835185449331    0.91290163666975
H        -0.34156739259329    2.44826118124992   -0.36674689153593
H         3.11610717526132    0.75793470563328   -1.13862755912571
H         3.07080054202950    0.35824580566064    1.58326429948434
H         4.74085603600441   -0.16612803339165    1.05047315643033
H         1.20277683292201   -1.30472475991353   -2.70312443752464
H         2.25663768312626   -2.64290471313533   -2.28854819232958
H         3.40566800183304   -1.44597367610355   -3.89856152417889
H         4.32741903853523   -1.63795143032800   -2.39181535822580
H         2.37055497117374    1.34934252872881   -3.07712704246223
H         3.48416359597042    1.78613575361500   -4.24277944300145
H         3.39900373953452    3.39798445975414   -1.96269478470286
H         4.88769221222217    3.09039011690598   -2.74921870469483
H         5.46437245904368    2.39271307800835   -0.52199234860626
H         5.54258572245109   -0.32888538175043   -1.38448681167025
H         6.16283613633944    0.92916508852023   -2.40857349036788
H         0.31677732381454   -0.30146730249388   -0.62659484362021
