33
 energy: -44.347716083099 gnorm: 0.119136340479 xtb: 6.4.1 (79825abcba525fcdf90b791dcacef51065a7a4e7)
C        -0.02320345837842    1.87404660065018    0.58836512485418
C         1.29554268108302    1.33536406001426    0.09687407188214
N         2.33121436109553    2.11568887655117    0.02851040041890
C         3.49721606315622    1.29467249036132   -0.40031857775348
C         3.85574728127871    0.26755484797600    0.71162796741721
N         3.28243642284869   -0.99386819963806    0.09414315123645
C         2.23054634878736   -0.85447532827694   -0.65809313256072
C         2.26028070593369   -1.55218353389735   -2.02200065641424
C         3.63091718439116   -1.22345843188362   -2.74658868756030
N         4.16844719160981    0.16441232274620   -2.83976755242468
C         3.38990426875062    1.33823400987454   -3.25906435683259
C         3.93499448668521    2.54101687917729   -2.45483523118306
C         4.62569082844745    1.87148734946383   -1.26171801779511
C         5.25966226329180    0.62594371817836   -1.95689842999812
N         1.17667046932693    0.02024912853062   -0.35014586069381
H         0.06934807112709    2.69090390106484    1.29595206139816
H        -0.51091825891565    1.02137042544962    1.06472125019243
H        -0.69156692686999    2.25926987874300   -0.20233209524338
H         3.09870271427009    0.72579158938606   -1.20558693316704
H         3.35808285530562    0.64336450420127    1.61536911922412
H         4.94499624499346    0.17618791458735    0.77738244197113
H         1.42255816942018   -1.14231081502576   -2.59963515662903
H         2.14157344287840   -2.64045186426959   -2.00153136953852
H         3.71680431439584   -1.71056899509090   -3.73024483414630
H         4.34393202934384   -1.71231695625870   -2.07044681636510
H         2.29778555147116    1.24578507197040   -3.25634565236887
H         3.48595879209852    1.47049178542648   -4.34240101295554
H         3.09842019050467    3.19542542675027   -2.19324629642975
H         4.76958393385042    3.02231884774981   -2.98135854068436
H         5.41928139619365    2.41406016529804   -0.74073108826331
H         5.57670081253806   -0.15715070674222   -1.26335006513246
H         6.05360905169809    0.93548809141774   -2.64657119717252
H         0.32104533226481   -0.09983739739588   -0.89252585435668
