33
 energy: -44.340900791120 gnorm: 0.136149180219 xtb: 6.4.1 (79825abcba525fcdf90b791dcacef51065a7a4e7)
C        -0.07161159269823    1.89255671900609    0.64816200813000
C         1.18113719860711    1.30591442408434    0.05041206714400
N         2.25223252968549    2.04001456677975    0.04348253058022
C         3.41407911874689    1.28584637753668   -0.50320295323188
C         3.79732894118898    0.32302462968507    0.65698421751955
N         3.34771437866622   -1.00780442884098    0.08435718562458
C         2.25199462733009   -0.92111700331757   -0.61108947182165
C         2.26568939378376   -1.59353220232260   -1.98789551101081
C         3.59701668704077   -1.15170767005527   -2.72552081867671
N         4.13864606455203    0.23692370832292   -2.77185184909012
C         3.48645532357160    1.39762380392316   -3.39412090593312
C         4.11304283416591    2.55552880543357   -2.58341839154473
C         4.58317568514653    1.90073243088313   -1.27993201839740
C         5.24658274903543    0.61751229264323   -1.87138081194763
N         1.20102047067324   -0.04098850351906   -0.30867268573613
H         0.23474024635068    2.77109865665101    1.20566853488678
H        -0.38569107780993    1.18926989523276    1.42184105376080
H        -0.87740115583390    2.00015522827176   -0.09979155601419
H         3.02797357643982    0.65212145012465   -1.26491859453407
H         3.28368476019971    0.61101253699618    1.58374388079900
H         4.88315686077895    0.21582648800389    0.74983444793080
H         1.41227236323396   -1.28050323074512   -2.60200343823303
H         2.34646810108454   -2.68439203787975   -2.03624830496811
H         3.37550653678875   -1.42532912593627   -3.76873569314352
H         4.31491054367294   -1.78047487671384   -2.18346835994722
H         2.39595759719130    1.28823976416378   -3.38283667673681
H         3.79614703476735    1.46155631608089   -4.44309210768560
H         3.50350468805246    3.43841179102912   -2.37007183102960
H         4.91157548377422    3.06749486186460   -3.13627849149009
H         5.26308407631938    2.46655544246372   -0.63715092488028
H         5.35005151878976   -0.18810399133976   -1.13991907330113
H         6.18685362703571    0.80019301163625   -2.40461263763568
H         0.23764862274187   -0.27379390080189   -0.55034919846549
