33
 energy: -44.349593311319 gnorm: 0.121262973319 xtb: 6.4.1 (79825abcba525fcdf90b791dcacef51065a7a4e7)
C        -0.09673026992413    1.77491255861332    0.44967736334444
C         1.23731827330709    1.23951972094766   -0.00254237894399
N         2.33229300545952    1.74731863667569    0.47638018513340
C         3.38906032017229    0.86643917255634   -0.09354646275627
C         3.36643186349581   -0.54135258835471    0.56792970520327
N         3.01799953786210   -1.41689498886490   -0.62084334921182
C         2.06999400774888   -0.79857864215366   -1.26172783788905
C         2.11501139109680   -0.81642044967231   -2.79325639465280
C         3.56476035516525   -0.50865150408093   -3.35471750697054
N         4.38166196035470    0.60143131712015   -2.78533718671896
C         3.79789384340843    1.94838980014130   -2.71667943899277
C         4.54897416706466    2.52720872657182   -1.49543357222894
C         4.77259596977769    1.34394066125753   -0.54741991624044
C         5.23170291286049    0.30138633204923   -1.61460116141892
N         1.11407126680810    0.14824447679625   -0.86127004032866
H        -0.38585307870978    2.58042488607310   -0.21670000895139
H        -0.00840259266391    2.06142906992203    1.49941259063905
H        -0.90642425996455    1.02624311543546    0.38488154371469
H         3.04800410089775    0.73809391801140   -1.09259783499749
H         2.67087304945042   -0.57008362175633    1.41706062241762
H         4.37063466869678   -0.75243585690006    0.95023253617466
H         1.38533173068129   -0.06320595865950   -3.11523750909330
H         1.83509251424142   -1.81518331390600   -3.14390798305027
H         3.36216787440299   -0.27799611825769   -4.41206659852488
H         4.29616559557874   -1.32515293321490   -3.30075047050904
H         2.70307707391156    1.93310242979922   -2.66748562974022
H         4.09898516482878    2.53869227314127   -3.58916090679354
H         3.98148912474971    3.29490008646784   -0.96144239591606
H         5.55157746153885    2.89252356769165   -1.75379306473462
H         5.47023478352963    1.57169597937085    0.26315163079920
H         5.14772101921061   -0.73176469510393   -1.26775011066071
H         6.27964585133433    0.49197427006667   -1.87404206901164
H         0.29111679558816    0.08199606254121   -1.46047641675903
