33
 energy: -44.353541825869 gnorm: 0.106818697681 xtb: 6.4.1 (79825abcba525fcdf90b791dcacef51065a7a4e7)
C        -0.06212730126447    1.87903602766461    0.44687450165484
C         1.28481936832681    1.33385432571465    0.04769374571337
N         2.30617227334316    2.13481306369460    0.08641795747821
C         3.49988995752404    1.34048598827705   -0.31558297423307
C         3.80848041942542    0.28404647562608    0.78380225491941
N         3.41886737206925   -1.01457559622515    0.10340286190551
C         2.33472261871197   -0.90234019231658   -0.60638294115849
C         2.29382618780686   -1.55992324318366   -1.98979777470375
C         3.53180105157251   -1.18306365818402   -2.90474445777230
N         4.16311476714734    0.16659520977230   -2.96532468806116
C         3.45969042999622    1.41882998151330   -3.27660996262886
C         3.97766216653015    2.57809950905823   -2.39434361807356
C         4.63052903845721    1.83135244591896   -1.22601422114685
C         5.13304873051151    0.52043789120209   -1.90832756956791
N         1.28923666614430   -0.01313315002497   -0.31159708186547
H         0.24413425348565    2.83753952929685    0.85181377463118
H        -0.64305682589665    1.34509721168622    1.20137284915930
H        -0.67452178765003    2.12005267386939   -0.44036433982344
H         3.06218274049748    0.76413332745357   -1.09476555651432
H         3.16837627319019    0.54021399332280    1.63837567722247
H         4.84768059633313    0.13306112094807    1.09428781791203
H         1.38304300645654   -1.24392724713193   -2.51330215168220
H         2.36020527946610   -2.64344709722721   -1.84694035728179
H         3.17753520821080   -1.41625794932408   -3.92079015086654
H         4.38658241642647   -1.83493901779857   -2.68350254984284
H         2.36619465854835    1.36976356128419   -3.22060126546243
H         3.71345662304395    1.56943106462574   -4.33172082673188
H         3.05355529421759    3.12791290712590   -2.19367576745180
H         4.70796404648192    3.17769423882742   -2.95341717983756
H         5.35091665588629    2.48409508423199   -0.72544718720205
H         5.30783126704942   -0.27593147122981   -1.18031207830610
H         6.11384984245177    0.72159119551405   -2.35485223192148
H         0.41946487935870   -0.39136757903154   -0.68726575868677
