33
 energy: -44.344939018374 gnorm: 0.114463040929 xtb: 6.4.1 (79825abcba525fcdf90b791dcacef51065a7a4e7)
C        -0.06768345533438    1.78069790652878    0.61431205174853
C         1.20557937424673    1.10272799480239    0.17843104099781
N         2.31994870532871    1.69669649961946    0.48105063686019
C         3.43627072678883    0.94787341934642   -0.15973894334158
C         3.42533076665152   -0.46430409952230    0.49262242798558
N         2.84433586198008   -1.32927723392335   -0.60984178159872
C         1.87865352408335   -0.83630423572969   -1.32831082121690
C         2.08450303897727   -0.86910614638445   -2.84636042081828
C         3.61192511014484   -0.68386918763306   -3.22636230151274
N         4.41928392457473    0.48801291450086   -2.78063804176436
C         3.95883285542908    1.88281654331605   -2.82863693818816
C         4.48757595959174    2.67118573493668   -1.60818652707201
C         4.77480720480269    1.52903547227416   -0.62744655683360
C         5.28730907304396    0.40998152886427   -1.58746458957690
N         0.99800692636583    0.10569582667456   -0.77358009109900
H        -0.36016315196372    1.46488703949235    1.60991238749188
H        -0.88357820793628    1.50793034114650   -0.05781229951061
H         0.02901294278415    2.87968155523844    0.67082342636887
H         3.11595411239214    0.75878041800288   -1.15600024952635
H         2.88030862412152   -0.42301481699119    1.44493377417007
H         4.37255969225320   -0.99848973002413    0.62122237050222
H         1.53390888746286   -0.03522075444022   -3.29903860359645
H         1.69390626506784   -1.79317265546136   -3.28496457736444
H         3.69212749649857   -0.75547740715298   -4.32211434973820
H         4.08221087053103   -1.54817338719972   -2.74020367906483
H         2.86322042264778    1.85536338992000   -2.81609850110212
H         4.26397127918929    2.33664071732653   -3.77798990846355
H         3.79106785226418    3.43427474736753   -1.24887122957729
H         5.37676534095957    3.21885044170604   -1.94704274051669
H         5.66320404763512    1.74450903626500   -0.02751255151924
H         5.36225367515269   -0.57608589915764   -1.12183170343937
H         6.31989758610282    0.60186681431338   -1.90172363203096
H         0.06232344175208    0.01651978154334   -1.17010907971973
