33
 energy: -44.340008738764 gnorm: 0.124099523313 xtb: 6.4.1 (79825abcba525fcdf90b791dcacef51065a7a4e7)
C        -0.05674324185481    1.98027100971686    0.48981206005377
C         1.27321629406863    1.42995864805785    0.04349642700500
N         2.30461404784763    2.21734279227660    0.09290414604850
C         3.50491680337033    1.40423740409443   -0.24717685520273
C         3.74695838232657    0.24108733666190    0.75703337821916
N         3.39399602903319   -1.00807522735278   -0.02793249540700
C         2.30207887819277   -0.82814048263544   -0.71138180802141
C         2.31543716479856   -1.52716409076939   -2.07487444407989
C         3.65164689399908   -1.21341822326534   -2.86723765995895
N         4.27937266275654    0.13803354202041   -2.92506971378688
C         3.35380697856000    1.24158717600650   -3.21712074310729
C         3.89740927549517    2.45369850032735   -2.42599676363715
C         4.60952443579269    1.83708012440584   -1.21705768668687
C         5.21435284947745    0.54818456558664   -1.85698373952285
N         1.30403783255855    0.10865761876597   -0.40001040734216
H         0.01924657999053    2.94127134071657    0.98700902183611
H        -0.57882487485608    1.28731776793085    1.15244628149746
H        -0.54913475229592    2.17712621180033   -0.47926349584622
H         3.11509508106670    0.76190452886201   -0.99973449415541
H         3.19175737521828    0.29995172659597    1.70251615182306
H         4.77840947188463    0.13192422869325    1.10821273179794
H         1.44367989597290   -1.33322175208466   -2.71194739478077
H         2.41115386212585   -2.59420508677704   -1.84882089072644
H         3.41307161643923   -1.45911115373119   -3.91363602803070
H         4.47549925187083   -1.86853112978292   -2.55637590879304
H         2.29313825957304    1.12242412918364   -2.96800323540173
H         3.29172113871010    1.53033359983892   -4.27215996389938
H         3.00827372309826    2.98969598415416   -2.08149634078767
H         4.59434061767675    3.02298215655709   -3.05498066562067
H         5.42238186295540    2.46810560096623   -0.84737095225544
H         5.40603869801536   -0.21115365691246   -1.09447363683586
H         6.06619058290403    0.79352059746089   -2.50196471538146
H         0.41640534640823   -0.39360272646412   -0.42312584352899
