33
 energy: -44.348865820435 gnorm: 0.119184761639 xtb: 6.4.1 (79825abcba525fcdf90b791dcacef51065a7a4e7)
C        -0.04145328115987    1.96850095903345    0.43452362156007
C         1.30733883154248    1.37920379716994    0.11153386498266
N         2.38383032776169    2.10393169864609    0.15770478973405
C         3.54636900277979    1.31579119432729   -0.33712905696196
C         3.83645077236515    0.27960276890444    0.78630608325599
N         3.47057947194733   -0.99324549537170    0.04660584288062
C         2.37638397472901   -0.81884482725590   -0.63463064228651
C         2.27384361933920   -1.44681566992517   -2.02856848514018
C         3.65848331725510   -1.28170407494436   -2.78172414187419
N         4.14457475221783    0.11786747200018   -2.95119584559904
C         3.31466565864398    1.29062813152711   -3.26051701472411
C         3.79474194070494    2.49902569422132   -2.42391880792532
C         4.61117952019563    1.84946404578101   -1.30126157766589
C         5.16140276329639    0.55105983756798   -1.97057123458283
N         1.32258808949473    0.05446610462550   -0.32242717864178
H         0.00301630840526    2.82754394907631    1.09525692606720
H        -0.66417704031348    1.19859421297741    0.89419335074341
H        -0.60952963734570    2.17361144862276   -0.49042379874625
H         3.08516678056411    0.78711972821284   -1.13631269318767
H         3.14098197028894    0.38200382309418    1.62980357701798
H         4.86704957840561    0.14102750109574    1.12952302291074
H         1.42593042320597   -0.97043808105304   -2.53605633848000
H         2.18019685792244   -2.53406663052841   -1.93938324994800
H         3.62259670637426   -1.70910666889922   -3.79576156390461
H         4.33187516720655   -1.94283773762167   -2.22137929148955
H         2.23347856178129    1.17532366556139   -3.12261547714916
H         3.47693480193485    1.48438701879636   -4.32656725924528
H         3.04240277632114    3.15328452358248   -1.97395543424365
H         4.49284970598971    3.10064525326810   -3.02067451957455
H         5.36410941180257    2.49695592607790   -0.84360507657175
H         5.43067524977469   -0.21835806936460   -1.24238989221217
H         6.07069570259928    0.90123362933694   -2.47294800111569
H         0.50521573739714   -0.23025440179120   -0.86236039292353
