33
 energy: -44.350132615864 gnorm: 0.125919446527 xtb: 6.4.1 (79825abcba525fcdf90b791dcacef51065a7a4e7)
C        -0.01655334046185    1.94109910411730    0.47918442205336
C         1.30534594777379    1.36758582639652    0.03816456663116
N         2.32555954779482    2.17024255134409    0.00495852455433
C         3.47706288756391    1.29908301422650   -0.35924375368995
C         3.77085741826640    0.21149236395892    0.71349655036434
N         3.40168278657961   -1.08201462002420    0.01227566202548
C         2.27904732858588   -0.91142161946667   -0.62203514339896
C         2.25921694025606   -1.59985001136087   -1.99082940487749
C         3.56218335109576   -1.23939242890348   -2.81792143968238
N         4.13645767289042    0.13683656339139   -2.82089008383558
C         3.45738099081166    1.35547076723935   -3.28303918095272
C         3.93499245924669    2.54416553667397   -2.41731030011187
C         4.60983657220350    1.88014373616816   -1.21210476271489
C         5.21649963561257    0.64592928943084   -1.95051464400048
N         1.27764639008313    0.05163657091879   -0.42117735022925
H        -0.03410558567295    2.99794812493982    0.23574453517424
H         0.02097287531193    1.88504339624224    1.56881146323406
H        -0.86416089959458    1.31709858950520    0.14378379570815
H         3.12394955402805    0.69386885315551   -1.15919518334733
H         3.17279293516806    0.33442922717419    1.62610613529307
H         4.79075524265381    0.13493878316326    1.10475458794775
H         1.38063475852206   -1.13815438446117   -2.45812676185639
H         2.17333544314124   -2.69116447108866   -2.01308900772188
H         3.43294347364016   -1.43862207969399   -3.89302018815934
H         4.33162868312776   -1.87426421816525   -2.36028364843796
H         2.36436739749103    1.28636916920596   -3.24033383223791
H         3.60918702795996    1.54244241546450   -4.35183917726728
H         3.13284440815949    3.24563136034638   -2.17024740493978
H         4.64756985194025    3.24628925805044   -2.86971903652322
H         5.34842507789755    2.43969598878340   -0.63159900845318
H         5.50938734574343   -0.08608466668719   -1.19345981545652
H         6.10679369227561    0.95102954535012   -2.51274953627957
H         0.33380525542579   -0.33263500923857   -0.46797984508020
