33
 energy: -44.344480599731 gnorm: 0.118971394174 xtb: 6.4.1 (79825abcba525fcdf90b791dcacef51065a7a4e7)
C        -0.18904670905875    1.67563216522562    0.42479294136885
C         1.18879833360997    1.21798998323784    0.02113420721523
N         2.28950458617133    1.64115801052922    0.56479842747980
C         3.42145516834854    0.87137266360152   -0.02141019675357
C         3.40444309322684   -0.57390473721488    0.55376300942756
N         2.85844747941420   -1.40398622994123   -0.59254168166486
C         1.96714213821900   -0.79832580153517   -1.32090473670753
C         2.10381272215706   -0.96393518196929   -2.83807950136782
C         3.43102474025744   -0.34414194955593   -3.44313894902068
N         4.31284269772919    0.59837908730621   -2.69624056207704
C         4.23358656631827    2.06412524316580   -2.76767518522505
C         4.63960009982616    2.57578823235105   -1.36626573344084
C         4.80909776208837    1.35281683299890   -0.45826165803987
C         5.17274837964115    0.28425049300420   -1.53645399703529
N         1.05986765963536    0.19296081791647   -0.91490893524179
H        -0.79783789667150    0.81504506650464    0.68026122820864
H        -0.53724346496139    2.22176101984833   -0.45403573272619
H        -0.07270156853384    2.37227486833192    1.27418186741923
H         3.07678256921539    0.80284969776747   -1.02510382148115
H         2.70585242075474   -0.54939889676402    1.40053416074931
H         4.40993130660765   -0.95045461605781    0.76902682834944
H         1.22234396594482   -0.54262000688556   -3.33702103922807
H         1.91222114905997   -2.00996997139539   -3.09873683747270
H         3.20991451928978    0.19290172066776   -4.37851431315758
H         4.08181765883323   -1.19904003899562   -3.66709983670262
H         3.16621932924249    2.28957026312440   -2.87340699252339
H         4.77097634758430    2.48854100674129   -3.62290636898178
H         3.86336576811237    3.28717402140077   -1.06974189032497
H         5.60251501726996    3.10319676842008   -1.35898431179179
H         5.60430452447650    1.51021495897324    0.27554394017706
H         5.06429550377277   -0.77864239608463   -1.30568067007940
H         6.19943144998556    0.53692718870646   -1.82609878871062
H         0.29111857850629    0.19087687510344   -1.58551440920343
