33
 energy: -44.342083936592 gnorm: 0.132508693403 xtb: 6.4.1 (79825abcba525fcdf90b791dcacef51065a7a4e7)
C        -0.01811424889824    1.96345786582586    0.48253955131862
C         1.30139711719002    1.42311086931225   -0.00505513784598
N         2.38383556250592    2.14037032309888    0.00282617379078
C         3.50509625033136    1.22206646857171   -0.33924790033252
C         3.84670160095759    0.15402300376025    0.73895864243385
N         3.34063167638672   -1.07154776176706    0.00205262080492
C         2.24226510192335   -0.85019733333600   -0.65852090664819
C         2.30605029240452   -1.54077139703785   -2.02488964282707
C         3.66487348497996   -1.20510118682833   -2.76829895746576
N         4.12371414605565    0.20592582502916   -2.91754395095393
C         3.34167888104218    1.41099540808765   -3.22742198255610
C         3.89839339792485    2.50501110858858   -2.28731929685821
C         4.66147487075027    1.81452600857652   -1.15162703645173
C         5.20044629735084    0.61445771052550   -1.99181773396043
N         1.23087596434559    0.09144126800907   -0.41146321133985
H        -0.27245620859204    2.85184258238371   -0.08542494957796
H         0.07138746359579    2.26595327252761    1.52768236955594
H        -0.78454059738020    1.18233686607117    0.33171040556514
H         3.07174585738276    0.68223933205770   -1.14652083607772
H         3.22662868397925    0.37882233652803    1.61681152885498
H         4.88902215912917    0.00813762262802    1.04131634796835
H         1.37885849386301   -1.33584836437093   -2.57421489239188
H         2.43460983957198   -2.62273340816878   -1.91686638781909
H         3.55275681872001   -1.64592476976644   -3.77096397722368
H         4.44168286939104   -1.76658330968361   -2.23365359850929
H         2.25575823361477    1.29568968976337   -3.13383549544511
H         3.45915182882726    1.60689470453245   -4.29894448609988
H         3.12820881880259    3.14406436254543   -1.84577368618631
H         4.42635551569994    3.18474113446715   -2.96896511367855
H         5.39660511106401    2.47816512382569   -0.68819927838559
H         5.54651141273080   -0.12939147711901   -1.26953871688494
H         5.96450883714470    0.85275196158315   -2.74097862184927
H         0.32901553893620   -0.28252300640543   -0.70724977430249
