33
 energy: -44.349102680425 gnorm: 0.134718558858 xtb: 6.4.1 (79825abcba525fcdf90b791dcacef51065a7a4e7)
C        -0.04952278047859    1.91322794572166    0.42999052630161
C         1.31819471491722    1.41785457413985    0.03655971682098
N         2.37291324423824    2.16329692217055    0.17102450278821
C         3.49254024925316    1.32546276394254   -0.34082653085430
C         3.84058636331612    0.28967757641396    0.76640125474201
N         3.43472031336062   -0.97139732070340    0.02739935039284
C         2.36040337141938   -0.82320293906266   -0.69068426448958
C         2.28752588912112   -1.63009470455470   -1.99127612073799
C         3.48741038128261   -1.19955558134870   -2.93289475203603
N         4.09678291720896    0.14753158989327   -2.73840227650270
C         3.35737256563754    1.31383285737838   -3.24120437034298
C         3.97237812958240    2.50116096134367   -2.46492181793495
C         4.61266177364324    1.92633076496943   -1.19666828564259
C         5.16017768474947    0.60395232581003   -1.81965795091534
N         1.33935356601408    0.10385529279687   -0.42867452404161
H         0.04477133511124    2.91494377865329    0.83517557649376
H        -0.41729382575847    1.15344057815888    1.12230921189260
H        -0.66116906368729    1.77525342085203   -0.47949320511583
H         3.04575672283922    0.74109287445978   -1.10880557297669
H         3.23253268768579    0.40810014517756    1.67298698072217
H         4.89932524282088    0.18886334777505    1.02725246855307
H         1.30319807955561   -1.55037188304251   -2.46895734262082
H         2.36603521132276   -2.71057556715828   -1.83241842827933
H         3.11294360625908   -1.25501262625907   -3.96678636740574
H         4.28773119057443   -1.89572022149347   -2.65114654008049
H         2.27565806185706    1.14918484981182   -3.17746849861992
H         3.61089656053162    1.50132865593628   -4.29044591361644
H         3.20668822464457    3.24525426908504   -2.22705632283975
H         4.73268833794458    3.02172018092583   -3.06188447480372
H         5.30195891503689    2.53575777832815   -0.60584952751898
H         5.44560166032842   -0.23808161623464   -1.18383434913919
H         6.05724036984296    0.80232139310152   -2.41777667026544
H         0.42637769620296   -0.29037791150084   -0.65615298605383
