33
 energy: -44.345670566547 gnorm: 0.114581403199 xtb: 6.4.1 (79825abcba525fcdf90b791dcacef51065a7a4e7)
C        -0.09735880027241    1.91104644617423    0.56920678690295
C         1.21848711294538    1.31264787595975    0.14341060998879
N         2.24688989283496    2.10386103783654    0.09275800859041
C         3.44726504551935    1.35176293678295   -0.36655679757811
C         3.87877708605105    0.26619186885489    0.66070811960538
N         3.29170143824607   -1.01198387850041    0.09257971131337
C         2.23357534235496   -0.85490721862985   -0.64732474781693
C         2.27101706628647   -1.67062826246480   -1.94390559210934
C         3.52363591372475   -1.21071462476036   -2.79898326096813
N         4.09015757999568    0.16842615948284   -2.77017480657526
C         3.52559212752802    1.38681229646002   -3.36733249960716
C         4.09419274882793    2.51541989747326   -2.47652798848311
C         4.62939899558495    1.85980436314324   -1.19880248921566
C         5.22749089833076    0.62646490057495   -1.94561863862150
N         1.16877281695494    0.01360560860791   -0.36007957006116
H         0.09499415153950    2.93973608787092    0.85433636005772
H        -0.59792049658670    1.44359493946751    1.41936242471951
H        -0.79577529641681    1.92718658510877   -0.28651670273207
H         3.07104248555879    0.82939016879996   -1.21300748552077
H         3.45523848851674    0.45301343119009    1.65638055958767
H         4.95879972011947    0.09002640110767    0.70134935616129
H         1.34857244352327   -1.59675237944594   -2.53303594565782
H         2.39458204125242   -2.75844023110472   -1.92857011207248
H         3.41690114319351   -1.47238659646128   -3.86311115763134
H         4.32044681715845   -1.85483164418594   -2.40560519630328
H         2.43793838264599    1.50373139388669   -3.29938587583697
H         3.89018344186394    1.50814623357125   -4.39333842041427
H         3.31363350770798    3.26570763863885   -2.32054258406760
H         4.94131438611103    3.07569575286103   -2.89353376863875
H         5.35559731098245    2.51121193469002   -0.70493731873025
H         5.57485979064080   -0.16408323273471   -1.27544839760776
H         6.06602950532259    1.01473042788106   -2.53546660979386
H         0.24978299377653   -0.19082348230002   -0.75296332762391
