33
 energy: -44.348752612877 gnorm: 0.114896523840 xtb: 6.4.1 (79825abcba525fcdf90b791dcacef51065a7a4e7)
C         0.02411534399021    1.97392297050002    0.50229073627910
C         1.29542814003609    1.35306930085245   -0.01649456079492
N         2.41133541944362    1.99873988023756    0.13860755511052
C         3.52494270232160    1.10664411437777   -0.28749821178416
C         3.82747226525747   -0.06354354843344    0.69182659951205
N         3.18664620122731   -1.21382694802237   -0.06140045327243
C         2.10632156127840   -0.92655709258344   -0.72633444431581
C         2.15838193575598   -1.48685616923376   -2.15156399525169
C         3.51849233030157   -1.04559241146065   -2.83502457816489
N         4.23402966708042    0.26272302057874   -2.82393032268423
C         3.53527594043639    1.49895993039471   -3.20242441803399
C         3.99185967278765    2.59243074211337   -2.20922386328066
C         4.64108033448680    1.82831727441467   -1.05012807243234
C         5.30683053353067    0.70963885494670   -1.91146992370736
N         1.13922361011751    0.07624886811721   -0.55390911153020
H        -0.24118597622218    2.96536712702047    0.15135684989225
H         0.14248281039942    2.09915798972859    1.58031804235840
H        -0.81652504429907    1.27192659260525    0.35795219992669
H         3.09818878532555    0.62120481109670   -1.13196565801599
H         3.34761835561834    0.15255494521598    1.65551353525710
H         4.86698438343629   -0.34020780223059    0.89678101410438
H         1.26532331830970   -1.16386027913810   -2.70070538653538
H         2.29986148155805   -2.57259178315821   -2.15126844432793
H         3.31294057482743   -1.33241548215656   -3.87795972490466
H         4.32757266942757   -1.69327123049301   -2.47385729455785
H         2.46055087841875    1.29140350352240   -3.25867263719635
H         3.75620858689175    1.73901410843541   -4.24832099946137
H         3.21404637527937    3.27141989126977   -1.84795377021880
H         4.76219560003501    3.18389612389275   -2.72124845888386
H         5.24934710266303    2.51903192074822   -0.45976933027865
H         5.63497182991410   -0.09791253657898   -1.25196731482670
H         6.05304694832712    1.09689762801610   -2.61503900515752
H         0.21998196968716   -0.10115166905086   -0.95914366855800
