33
 energy: -44.343818010351 gnorm: 0.121079085496 xtb: 6.4.1 (79825abcba525fcdf90b791dcacef51065a7a4e7)
C         0.01484229371064    1.76909652780964    0.52859170530198
C         1.37305850340472    1.34745148307567    0.03029671462840
N         2.36225010850557    2.18861202758099    0.04234401208531
C         3.50887224178213    1.35787422192735   -0.41880082645279
C         3.72482784107860    0.33998770066720    0.73757740879961
N         3.43418796847242   -0.98480812400539    0.05816189316774
C         2.33632955497320   -0.89988825035881   -0.63412276302161
C         2.19496785691400   -1.60949430071732   -1.98482655290448
C         3.50390446275501   -1.16354418303636   -2.75912999246840
N         4.11996781047545    0.19176898135247   -2.84514285577274
C         3.44375065818675    1.40975830247479   -3.31314779261383
C         4.07895346966662    2.55045275709851   -2.48494008106353
C         4.68631707987911    1.89125900921263   -1.24178564002000
C         5.19533876407621    0.57390249992073   -1.90664899192959
N         1.30418124176274    0.01805014377635   -0.38374759873306
H        -0.05372561663733    2.83341506071242    0.72614021119080
H        -0.37637792773277    1.22812811610780    1.39238418625761
H        -0.74459439752960    1.64766313405734   -0.26438915107652
H         3.05649634262768    0.77704391784810   -1.18619101270086
H         2.93333008900665    0.53357662834982    1.47358385643385
H         4.73430513888846    0.29770045431202    1.15983591936820
H         1.31992483920897   -1.29571884635855   -2.56730486779500
H         2.12634921967531   -2.70209336704094   -2.00372431020060
H         3.18246193471313   -1.52284359945617   -3.74898419918996
H         4.24833890869739   -1.91923397511808   -2.47754351353983
H         2.37649643434954    1.33868213663550   -3.07399492895242
H         3.54552766195420    1.48922942114759   -4.40111042245549
H         3.24112867115093    3.15930636257001   -2.13297024183877
H         4.87457344254968    3.12112264058763   -2.98167206891552
H         5.37364481075197    2.51480029563887   -0.66353354356387
H         5.45264952319182   -0.25554924794843   -1.24290158175016
H         6.06737011381773    0.85317331667731   -2.50946478846684
H         0.32932338872889   -0.28184418327986   -0.40391586100897
