33
 energy: -44.318212938683 gnorm: 0.114955516269 xtb: 6.4.1 (79825abcba525fcdf90b791dcacef51065a7a4e7)
C        -0.09321000000000    1.78934000000000   -0.25214000000000
C         1.26631000000000    1.21298000000000    0.04844000000000
N         2.29145000000000    2.00965000000000    0.02392000000000
C         3.55708000000000    1.26392000000000   -0.22019000000000
C         3.90248000000000    0.14208000000000    0.80065000000000
N         3.47846000000000   -1.16606000000000    0.16023000000000
C         2.31264000000000   -0.98588000000000   -0.38764000000000
C         2.15762000000000   -1.33234000000000   -1.87218000000000
C         3.31246000000000   -0.94160000000000   -2.88480000000000
N         4.10674000000000    0.31302000000000   -3.02211000000000
C         3.40802000000000    1.58391000000000   -3.25965000000000
C         4.05070000000000    2.61780000000000   -2.30643000000000
C         4.64409000000000    1.77752000000000   -1.17035000000000
C         5.15904000000000    0.57195000000000   -2.01770000000000
N         1.30137000000000   -0.17668000000000    0.15380000000000
H        -0.14206000000000    2.85269000000000   -0.04381000000000
H        -0.86954000000000    1.24501000000000    0.28902000000000
H        -0.26704000000000    1.63904000000000   -1.33265000000000
H         3.12752000000000    0.73282000000000   -1.03524000000000
H         3.42593000000000    0.27782000000000    1.78051000000000
H         4.98429000000000    0.09760000000000    0.96449000000000
H         1.22818000000000   -0.87053000000000   -2.22758000000000
H         2.00835000000000   -2.41570000000000   -1.92592000000000
H         2.84356000000000   -1.07331000000000   -3.87223000000000
H         4.04567000000000   -1.75651000000000   -2.83127000000000
H         2.32966000000000    1.51397000000000   -3.07655000000000
H         3.55163000000000    1.90658000000000   -4.29676000000000
H         3.33522000000000    3.36822000000000   -1.95787000000000
H         4.86105000000000    3.14832000000000   -2.82344000000000
H         5.44826000000000    2.28897000000000   -0.63432000000000
H         5.42999000000000   -0.31209000000000   -1.43476000000000
H         6.06173000000000    0.87623000000000   -2.56027000000000
H         1.31392000000000   -0.36394000000000    1.15653000000000
