33
 energy: -44.339550376349 gnorm: 0.140299149693 xtb: 6.4.1 (79825abcba525fcdf90b791dcacef51065a7a4e7)
C        -0.01652452618071    1.94287529099703    0.56564813008307
C         1.29398286964118    1.36767289386590    0.09390002383811
N         2.35204591539400    2.12040854858913    0.10327390455586
C         3.42748312042622    1.21917245368118   -0.39545498704063
C         3.82068447015616    0.19922645946715    0.71136174811946
N         3.33428013640502   -1.10600098814909    0.11056802889360
C         2.26682820989827   -0.91464883256326   -0.60754983557520
C         2.20411544584622   -1.43893964777902   -2.04599026461971
C         3.55828043826904   -1.12633202901261   -2.80772907101343
N         4.35975638793113    0.12816741115563   -2.89532756723639
C         3.51112730625424    1.25359858962558   -3.31129583822520
C         3.92826939060772    2.47235176097308   -2.45617733270667
C         4.55031876113492    1.91711399665025   -1.17024361510542
C         5.23945469013229    0.69324392072622   -1.85127829494564
N         1.28384157023184    0.06785797091338   -0.40994818225521
H        -0.10016399874315    2.94906019701345    0.16929313168985
H        -0.02100325346710    1.95209249230772    1.65731315440469
H        -0.90523714067800    1.38095212686847    0.22691366184453
H         2.95671225423285    0.66021294130687   -1.16800566477114
H         3.21305513545696    0.40692680682234    1.60203453514643
H         4.87318313192407    0.01583991410673    0.95167574970839
H         1.25559625556863   -1.13220070239590   -2.50387548312922
H         2.22170446951612   -2.53283623949310   -2.08979947268583
H         3.42175955694650   -1.30093126180161   -3.88620479026918
H         4.15362712554107   -2.01401190585680   -2.55847536252146
H         2.42779235408318    1.09529270387556   -3.36230683422532
H         3.75850594288924    1.48312371328915   -4.35362924665177
H         3.03854780981053    3.04466922140812   -2.17799734088392
H         4.56669040712673    3.06529416666358   -3.12420116172039
H         5.20157394429360    2.62737969629645   -0.65353484014127
H         5.64360870541740   -0.06046133017508   -1.17058190112185
H         6.08053233549554    1.08034064883529   -2.43827256036212
H         0.35004672677046   -0.24816597857479   -0.67233579038043
