33
 energy: -44.346898209713 gnorm: 0.119008467187 xtb: 6.4.1 (79825abcba525fcdf90b791dcacef51065a7a4e7)
C        -0.05391694421434    1.88449548902759    0.50090714638840
C         1.27694323565470    1.26472489832150    0.16101114313730
N         2.32122048642312    2.00977521131856    0.36245908636506
C         3.43047544732770    1.18776061263494   -0.19554413199812
C         3.76775064968199   -0.07913186353628    0.64181438339252
N         3.24783169798036   -1.22481578276151   -0.20568404213174
C         2.17773659310867   -0.88971030120099   -0.86474647554641
C         2.12491222830841   -1.29328745604609   -2.34199379701825
C         3.52230356296386   -1.00201637214295   -3.03060904305242
N         4.27686262158393    0.27238219555821   -2.85638234681203
C         3.68132748259000    1.57259634342048   -3.19487504890550
C         4.12110178835329    2.61441538352870   -2.14045288254147
C         4.62195997794029    1.75652210232486   -0.97339671600119
C         5.23766120445513    0.56554122930696   -1.77280341570854
N         1.18757306686604    0.01433454639635   -0.44892459554611
H         0.16551365295712    2.91946846824297    0.74003484773443
H        -0.44794926483856    1.33315885894537    1.35683003370481
H        -0.78689686701594    1.90896011548474   -0.32519859951542
H         3.00594102182010    0.76040393135802   -1.07191864057654
H         3.27098832359085   -0.02002894618299    1.61925230041166
H         4.77856817472871   -0.36564771652762    0.95050753704926
H         1.31291388770599   -0.70925255678901   -2.79254705378414
H         1.91903421678110   -2.34966303103054   -2.54329766570168
H         3.38415860987881   -1.27581868175132   -4.08804980993312
H         4.20703599847117   -1.80637000451138   -2.73278800059997
H         2.60393040368381    1.37427346887448   -3.22894942146926
H         3.89816998061438    1.85219071075461   -4.23176618065790
H         3.34717174721549    3.36909308358566   -1.97303207190759
H         4.94045252801130    3.25540487249176   -2.49147248579188
H         5.28991633665815    2.22587595631804   -0.24597669281579
H         5.39502225296134   -0.36822008683858   -1.22683001408855
H         6.17314970013494    0.89741732069567   -2.23813907626398
H         0.34439571340569   -0.03250375665509   -1.02124384529590
