33
 energy: -44.344274423203 gnorm: 0.128256165792 xtb: 6.4.1 (79825abcba525fcdf90b791dcacef51065a7a4e7)
C        -0.05941013997802    1.83190766081469    0.56052602288060
C         1.29803803051671    1.40532680105466    0.06434365281164
N         2.34549382128170    2.17006449283267    0.12921938851150
C         3.43893974361244    1.30848090623145   -0.39952621274765
C         3.86081860400906    0.27021173602492    0.67934160238987
N         3.28869513442280   -1.04348885560849    0.18131906951420
C         2.23408560086568   -0.89457748520347   -0.56526425662436
C         2.23943331703353   -1.62778604288295   -1.91073860665419
C         3.52355062307943   -1.17841647750496   -2.72366055848023
N         4.13676229220890    0.17078680381957   -2.88927453866650
C         3.53371298390490    1.39941108595356   -3.42463436802721
C         4.01385938093973    2.54763354396034   -2.50722546997434
C         4.58110008552737    1.84445577652216   -1.26922752137280
C         5.17807360093015    0.55411123569312   -1.91359396244547
N         1.25743959957014    0.10581570179055   -0.43875411411448
H        -0.17145125885449    2.63628301729124    1.27950305785584
H        -0.46151274797834    0.90519530795670    0.97447681042943
H        -0.61578740065479    2.08197582146588   -0.36046206481182
H         2.98064905449377    0.68115454806391   -1.12569890391653
H         3.33134257905591    0.53011285662646    1.60549353394236
H         4.93216452644271    0.11601592013108    0.84540315151200
H         1.36274977088577   -1.22822829340586   -2.43534882600926
H         2.39263125206355   -2.70830117152482   -1.82210554247839
H         3.37968928025695   -1.46350234102812   -3.77735058979691
H         4.32081763476299   -1.75431910532608   -2.23658548103911
H         2.43861834154211    1.44401087623434   -3.43212250203278
H         3.93225445698571    1.69330197545441   -4.40194176045133
H         3.19954865212412    3.21812471650078   -2.21761280534811
H         4.79849293801913    3.15702718068608   -2.97456635183320
H         5.36950636188174    2.43541472976159   -0.79511604721656
H         5.39859325622570   -0.20644859730871   -1.16014889070107
H         6.07063319031813    0.76688582725677   -2.51349570423877
H         0.35876213244402   -0.13299455528162   -0.85832493124332
