33
 energy: -44.340776851952 gnorm: 0.131100622604 xtb: 6.4.1 (79825abcba525fcdf90b791dcacef51065a7a4e7)
C        -0.04177277522440    1.88330617007964    0.54241142013642
C         1.30824946641677    1.40266123974566    0.07630616693380
N         2.35984624395226    2.16322192266882    0.11975624828455
C         3.48524616422132    1.28509295904198   -0.30437429818559
C         3.74853851547601    0.17959108016081    0.75792657509385
N         3.34837897523396   -1.10005730649271    0.04832576306488
C         2.34137398546927   -0.82546754924799   -0.72775667752618
C         2.31914827737532   -1.59350456820949   -2.05348280815301
C         3.51470306243349   -1.12729220327189   -2.98355116829850
N         4.12189530119382    0.23315807235416   -2.91798685016326
C         3.47759983098987    1.50255111021432   -3.28311821320194
C         3.98129806232091    2.56972209324436   -2.28410437437546
C         4.65862962874613    1.80409197346922   -1.14222330075914
C         5.13756330483962    0.51619284532706   -1.88283986613728
N         1.34432959242278    0.13850020006493   -0.51027698076898
H        -0.50594591543584    1.02858823346820    1.02251709431113
H        -0.62344403930937    2.35629293170452   -0.25117512318347
H         0.07801221288243    2.71204920756594    1.26292882459436
H         3.09881610498417    0.67700084520911   -1.08654517860998
H         3.15410730024447    0.19383116524703    1.68101898895426
H         4.77074567748026   -0.03325997902239    1.08795963726627
H         1.30814603036678   -1.38728893324536   -2.42602258714411
H         2.49499256991100   -2.67414853519585   -2.04226799418943
H         3.15803139613284   -1.42598790649958   -3.98144841701922
H         4.35249504690005   -1.80923322938902   -2.78963963962653
H         2.41958534935692    1.24131265804860   -3.16633926370150
H         3.61739471925932    1.82115017946554   -4.32200652482464
H         3.10912014684214    3.16402481678232   -1.99662249752485
H         4.69112328997097    3.26379727570533   -2.75296012304197
H         5.42872791972744    2.40300924943592   -0.64841630143175
H         5.10436814273935   -0.33340966865075   -1.19593863021824
H         6.10352103504836    0.64666176363353   -2.38455818756863
H         0.48108856179545   -0.19241575180577   -0.94155503829306
