33
 energy: -44.343720456711 gnorm: 0.121993236079 xtb: 6.4.1 (79825abcba525fcdf90b791dcacef51065a7a4e7)
C        -0.05361334616997    1.86732078718308    0.40585705066103
C         1.30835008023046    1.33774539727991    0.03783633166205
N         2.40096034092397    1.98308963832313    0.31339009233475
C         3.47088033342040    1.06283066166781   -0.16191697531079
C         3.64036572497670   -0.23946781604458    0.67188983100223
N         3.18995443324324   -1.35237804706072   -0.25532182098437
C         2.16959694643746   -0.91880024236264   -0.93550078821256
C         2.08474313670520   -1.33734900285245   -2.40707864924503
C         3.39848663851616   -0.79015227280395   -3.10449253381683
N         4.25146529183201    0.42255072026006   -2.94453966370363
C         3.75373860647158    1.79816854805303   -3.08503875940627
C         4.22837309308817    2.64840201660931   -1.88403100703931
C         4.71792032583684    1.63084783435488   -0.84779410659948
C         5.12248445102710    0.42373283386192   -1.75099716985098
N         1.26200266156501    0.09680745588378   -0.59573264471444
H        -0.12852652902166    2.06506287999063    1.46971182981848
H        -0.81590207464661    1.16312452045742    0.06694547854307
H        -0.25358017603334    2.84231977338457   -0.07341222825019
H         3.09473788011852    0.75508289564040   -1.10780474071403
H         3.16750043466996   -0.26915550883976    1.66242903315582
H         4.70559123477207   -0.37257461227635    0.88801959005133
H         1.13953160968926   -1.00038297443819   -2.85032280259429
H         2.16700773716618   -2.42715376430058   -2.47338474883195
H         3.06313471793902   -0.78008249642466   -4.15314424558101
H         4.19671249021366   -1.53316470099871   -2.98076427908466
H         2.67318410512506    1.69020118030038   -3.23343860049889
H         4.14799208442137    2.17347935319890   -4.03585046546714
H         3.44586961931678    3.22033385011846   -1.37696280033374
H         5.01338684708273    3.36874157353214   -2.14913901402334
H         5.44244151553798    2.14416949405996   -0.20969649939233
H         5.20862367830115   -0.53817701441560   -1.23907028591215
H         6.16082267278531    0.57133368928897   -2.07019221286080
H         0.32570511534819   -0.08276640705391   -0.95876342279241
