33
 energy: -44.343704928472 gnorm: 0.138866303382 xtb: 6.4.1 (79825abcba525fcdf90b791dcacef51065a7a4e7)
C        -0.04361923179418    1.83510329124857    0.62996194761042
C         1.20826364054987    1.20807790273639    0.07277064901199
N         2.36895977389207    1.59292185468957    0.50966407454578
C         3.37410580595227    0.72696788825072   -0.16659576137334
C         3.27965548695165   -0.73757902557813    0.34927427093424
N         2.77576864006642   -1.52430694038228   -0.84584840004588
C         1.90278829857922   -0.77031700197888   -1.44682014296472
C         2.05190330713422   -0.76563651806264   -2.97183405506022
C         3.55143074982028   -0.38374554112419   -3.31433822577411
N         4.44895750985117    0.63962132766136   -2.70526350069356
C         4.11376116666356    2.07049344137925   -2.71194643644321
C         4.59958034050479    2.57977303874356   -1.33528072133035
C         4.74639805285944    1.36087984929068   -0.41789101635067
C         5.19114382548462    0.30043519896281   -1.47346331381211
N         1.07143020275171    0.22109066538661   -0.90222550511175
H        -0.52274040093354    2.58751218450442    0.01285201412345
H         0.11707138456690    2.25345301128753    1.62545156284294
H        -0.79938579272149    1.03408642803362    0.71655112707606
H         3.03353913686458    0.69679611673244   -1.17357118483551
H         2.57453419191350   -0.93489968149584    1.16751590651327
H         4.22745854880796   -1.17414755084294    0.68125643546149
H         1.43841757575230   -0.05475599395270   -3.53903811758231
H         1.93404111993969   -1.75208532697020   -3.43212269172237
H         3.61405587164324   -0.26262579892560   -4.40687693136666
H         4.14325148669944   -1.26041809345721   -3.02153434626282
H         3.05671465323609    2.33339524380733   -2.83365430203947
H         4.55153749061101    2.65629204316288   -3.52774591680462
H         4.01427516981616    3.45503706899466   -1.03885769993469
H         5.58229261252856    3.03823885321696   -1.50704688546312
H         5.49745153757048    1.43139575090747    0.37365481765947
H         5.03314073993740   -0.73814903020174   -1.17157346222467
H         6.26342241042826    0.42628128456817   -1.66372405618450
H         0.13070821520359    0.20459170481118   -1.29651110678653
