33
 energy: -44.341986141345 gnorm: 0.109740933523 xtb: 6.4.1 (79825abcba525fcdf90b791dcacef51065a7a4e7)
C        -0.08098826092094    1.78168664325024    0.51368633301537
C         1.29711651445683    1.35588242724563    0.07739317195736
N         2.36695795396209    2.08693463492729    0.16223544028358
C         3.53122021162882    1.23713658799845   -0.21174161981868
C         3.78525145740329    0.06984591901403    0.78467246146003
N         3.27086278938730   -1.12304213152214    0.00135684897642
C         2.26790817136720   -0.83607499936371   -0.77549219560845
C         2.19514141967339   -1.42056914868318   -2.19005793041396
C         3.52582381327907   -1.05400249014133   -2.96893251882497
N         4.19498429442354    0.27865700648045   -2.96193460713515
C         3.46644652862515    1.53174041019734   -3.20444432459208
C         4.06827438232882    2.56386705930187   -2.22306148343677
C         4.68497516511342    1.75095051337802   -1.07951142051048
C         5.14014925888442    0.46718192432804   -1.84196094535437
N         1.25080605125653    0.09711207403672   -0.51996539438118
H        -0.06082575565345    2.76412511169328    0.05443797706029
H        -0.15400097527824    1.78941206346446    1.60292781387751
H        -0.86129446694746    1.08997036852946    0.14905005033387
H         3.19877533207128    0.74784177098807   -1.09546469841775
H         3.12622505293007    0.31384773798177    1.62835377662830
H         4.82768649878614   -0.10707073708404    1.06956639400112
H         1.31689221642271   -1.13279301360407   -2.78107362026595
H         2.11991947830446   -2.51139509050107   -2.13279711878981
H         3.35307240308462   -1.17686176292299   -4.04934691772159
H         4.28311473707112   -1.72898678149907   -2.55006819655252
H         2.39030052571214    1.45689958626813   -3.01057291028460
H         3.63439466190399    1.79162442430451   -4.25543939058941
H         3.35186983205993    3.29687627207268   -1.84096478583258
H         4.81191685120777    3.16164709689094   -2.76626754935908
H         5.47892082386593    2.38264978949627   -0.67182901492259
H         5.36491668335797   -0.40606938284389   -1.22416533616252
H         6.11178015442071    0.74683541929702   -2.26568854298156
H         0.41321910027380   -0.04505288179836   -1.08470288800151
