33
 energy: -44.343743274764 gnorm: 0.129165572656 xtb: 6.4.1 (79825abcba525fcdf90b791dcacef51065a7a4e7)
C        -0.09338704489403    1.65970728879911    0.66549358887877
C         1.17185158338079    1.20197092237802   -0.01309489730549
N         2.26570943588306    1.79333473266718    0.36101748001602
C         3.32199397576137    0.90416339533644   -0.19679923112668
C         3.18588341676168   -0.44705195908492    0.56190452883358
N         2.81438140284459   -1.37293508840486   -0.58084987979107
C         1.98301795149649   -0.76588537252893   -1.37588948262865
C         2.14220236516401   -0.90740874450473   -2.89330703660486
C         3.57558010276151   -0.42029086607242   -3.36221721653552
N         4.55378271837795    0.57856737935863   -2.84336476987221
C         4.16508974634977    1.99325908170140   -2.75756618286954
C         4.67975109386354    2.58400875293929   -1.42462470457662
C         4.75218782633600    1.35823980076140   -0.50750785784059
C         5.22469822597868    0.30287634151998   -1.55608613926478
N         1.02843150231627    0.16191237908195   -0.93026095708976
H        -0.26505824589826    0.79597745841335    1.29873974815934
H        -0.92185728407422    1.72196821833680   -0.04274237111069
H         0.04732247301619    2.58231551098108    1.25651278604407
H         2.95210492007935    0.79105423598422   -1.18739697858799
H         2.51180088918872   -0.46221383381856    1.42852654192454
H         4.11079138905172   -0.88124466673280    0.95580402415273
H         1.34068710237788   -0.30628216192517   -3.34013632896153
H         2.01544440609923   -1.92180783391084   -3.28543617570417
H         3.42988286273868   -0.13086721903334   -4.41447145269388
H         4.20459992020197   -1.31457709685997   -3.45775176469743
H         3.09051003746111    2.18614742358608   -2.66087065335472
H         4.47009121507777    2.53019738717381   -3.66255693319823
H         3.98734282372955    3.22626699918475   -0.87270894570858
H         5.69335040160379    2.96182111352460   -1.61248685772094
H         5.35470563832829    1.41759968050824    0.40301250120145
H         5.07262121338968   -0.72779065906674   -1.22539327832165
H         6.28013224382060    0.43640452445515   -1.82075008582080
H         0.12442579329022    0.10669397092231   -1.39974556559148
