33
 energy: -44.349269150945 gnorm: 0.113605086599 xtb: 6.4.1 (79825abcba525fcdf90b791dcacef51065a7a4e7)
C        -0.02927371215071    1.92660952231682    0.62930710002411
C         1.26819419832227    1.34760119412734    0.12715168128971
N         2.35007891507712    2.06155067821784    0.20459722457414
C         3.48157159419940    1.27683695413201   -0.36238676153860
C         3.84174031803589    0.20244694039700    0.70340166781017
N         3.24931865379139   -1.03442763290102    0.05506626169449
C         2.23756351890482   -0.80151720010847   -0.72843025054957
C         2.26203222703015   -1.42478325503706   -2.12802493969979
C         3.70906076058246   -1.22383442297928   -2.74240295572129
N         4.26875159285206    0.14998384756149   -2.89463821033423
C         3.43244833210811    1.26178158810446   -3.36824024511143
C         3.87009389268049    2.47632865568047   -2.51739581521614
C         4.54892906808955    1.89168089446046   -1.27392096556341
C         5.23981882846945    0.63614643383779   -1.89269319651508
N         1.18889906337965    0.10150420425841   -0.49287996472142
H         0.25329390422870    2.90776245094827    0.99536089966092
H        -0.34550869891195    1.29596713201359    1.46244763330137
H        -0.75808765566855    1.97623270071489   -0.19935239929367
H         3.01764400486727    0.81243163332357   -1.19904342797767
H         3.30538462098424    0.50205503373610    1.61346122736696
H         4.88852677328658   -0.03525878085796    0.91989409681618
H         1.38196287764777   -1.08132025893850   -2.68565152860368
H         2.25812093312001   -2.51577906244743   -2.03555212498622
H         3.78385760111760   -1.78492859069726   -3.68676066321123
H         4.41573065440747   -1.67998150373575   -2.03735816690738
H         2.35409373211481    1.22453453138155   -3.17577855124233
H         3.63444326447645    1.34824647619894   -4.44158025259456
H         2.99954587257844    3.09939507475310   -2.29273996530556
H         4.52395756885052    3.21030803897719   -3.00643004632041
H         5.26725475724618    2.56110448891884   -0.79279844677422
H         5.41789057484435   -0.15946449910736   -1.16464556679672
H         6.20667574591363    0.90284544420923   -2.33527322675212
H         0.25258143736138   -0.30215519372585   -0.52543122660193
