33
 energy: -44.350607012553 gnorm: 0.116125351399 xtb: 6.4.1 (79825abcba525fcdf90b791dcacef51065a7a4e7)
C        -0.10336487665372    1.76721942953923    0.60802710646070
C         1.13591240915660    1.03317073487427    0.16508465849668
N         2.27731689163865    1.52127985258136    0.54605908519588
C         3.37190856121176    0.79998885658068   -0.16043262606625
C         3.25670057514226   -0.65899844572210    0.36684678504001
N         2.81811771019637   -1.36428278251851   -0.90255465792355
C         1.86441804101720   -0.74259408320350   -1.53161953887103
C         2.07420906557542   -0.55787729888203   -3.03820243739832
C         3.62307895718017   -0.46296391484730   -3.36026743539489
N         4.51066727739552    0.51166436778726   -2.66306393485087
C         4.20501272063604    1.94849717000087   -2.70645793592427
C         4.60274962507899    2.56115147236619   -1.34372005788264
C         4.77916956599192    1.34289255729788   -0.43071341502710
C         5.33285262537074    0.30173264123879   -1.45345268803355
N         0.97202801206859    0.11941033421186   -0.87494827080893
H        -0.97712195728190    1.62913465336632   -0.01965279531159
H         0.22136676995423    2.80009304849991    0.74788054672075
H        -0.35395948369373    1.43318585910389    1.63073562227653
H         2.98622478158593    0.86855141688871   -1.14908963826799
H         2.50611073844585   -0.74709650218080    1.16340467921850
H         4.21446071236573   -1.06562849437294    0.70814195745993
H         1.53995699805678    0.35941853087964   -3.31493226443692
H         1.70544533634941   -1.45754839980660   -3.54163425203678
H         3.70703268903402   -0.14454574493100   -4.41088361522749
H         4.00981171698635   -1.48494003154451   -3.25758716403140
H         3.11915097033172    2.06918902487081   -2.79372321157638
H         4.71859297646637    2.50097701526362   -3.50102589600372
H         3.77897909151038    3.20888861558422   -1.03007284722717
H         5.50903268327354    3.18051273870090   -1.36518078919415
H         5.45721729513971    1.40992104064396    0.42448076639734
H         5.17718965902100   -0.72349412565190   -1.10785353989177
H         6.31498411904898    0.66780028362546   -1.77474688213029
H         0.05775211265437    0.20715674050387   -1.31889797557297
