33
 energy: -44.333802041610 gnorm: 0.134112968969 xtb: 6.4.1 (79825abcba525fcdf90b791dcacef51065a7a4e7)
C        -0.14202841738609    1.97027217694301    0.35445840089414
C         1.18165093379987    1.34719337005781   -0.00676103451346
N         2.27088962011475    2.02760826582641    0.18504850165271
C         3.47915096788323    1.31708462420094   -0.31772663136622
C         3.89661279098324    0.21813069523831    0.70107967871876
N         3.37879014018113   -1.07524349135431    0.10090980659928
C         2.31856856952832   -0.85760508590192   -0.62042665367655
C         2.37523272574809   -1.67183828408668   -1.91724510920512
C         3.50946219615327   -1.14809190657110   -2.89240951717599
N         4.05668228864243    0.23864160241465   -2.85598965284384
C         3.34021684507755    1.48413302328271   -3.16457456557141
C         4.14740360703889    2.55969291717109   -2.40154447667083
C         4.65662814885929    1.82348682120491   -1.15753850214279
C         5.13264785016388    0.52720307204923   -1.88529410328817
N         1.24808082305385    0.04102117012193   -0.48944722270010
H         0.10085574524692    3.02660768520374    0.39524436344199
H        -0.70299958470984    1.56321612617034    1.19793587730469
H        -0.79770994655814    1.94662023179172   -0.53426602973122
H         3.06772614643768    0.69503355100004   -1.07580154335679
H         3.48250701745288    0.55167287656511    1.66176530609477
H         4.98226714090033    0.11250717065689    0.79768806419614
H         1.38482898303970   -1.68764969206656   -2.38871806078062
H         2.80875366742221   -2.65725889102571   -1.71763497700819
H         2.91438628410782   -1.15875213234696   -3.81869443352647
H         4.39883284833232   -1.78768963786988   -2.95930676047891
H         2.29660932303742    1.62176495305627   -2.85925786666091
H         3.53603172107824    1.57267756580193   -4.23888983823143
H         3.52895446974571    3.41890267464025   -2.12619900106332
H         5.01157541932107    2.95621605828019   -2.95053846926399
H         5.33868732309502    2.37073392713850   -0.50109770326034
H         5.30609441892342   -0.35887463278784   -1.26922410129218
H         6.05462178875182    0.73492494085841   -2.44084197073388
H         0.40444475358371   -0.47663050237966   -0.73644142663539
