33
 energy: -44.342546445288 gnorm: 0.120214599227 xtb: 6.4.1 (79825abcba525fcdf90b791dcacef51065a7a4e7)
C        -0.06020515290768    1.88901669342553    0.62471310068366
C         1.24565109023287    1.36602523880661    0.08429369761981
N         2.30668825091871    2.11000263025098    0.00126338973985
C         3.44278093616518    1.27086655588236   -0.47061184136505
C         3.76235576646813    0.26365811797090    0.67102886535910
N         3.27647865229971   -1.04567272627207    0.07879822576497
C         2.18456504764333   -0.87119299157123   -0.60606967895625
C         2.24558675809977   -1.57185997237213   -1.96741708509510
C         3.60754888150747   -1.15469520049204   -2.66223007647216
N         4.25010314164769    0.16815078736923   -2.90922918517066
C         3.54484540789816    1.38855387310941   -3.32519082704921
C         4.06518485013851    2.59522003835281   -2.51045277355745
C         4.60448337755342    1.85351765971775   -1.28248917721367
C         5.23930248455721    0.56065226216916   -1.88421859608084
N         1.15677723974847    0.06354870426632   -0.40472677852128
H         0.20969130363820    2.79460552728091    1.15722195763899
H        -0.56179256448199    1.09540753519166    1.18187745287091
H        -0.67315402615900    2.18997646757981   -0.24363342800317
H         2.98432523740516    0.64675564003916   -1.19944613547839
H         3.18236207894021    0.46564851742031    1.58122557783874
H         4.84509694022778    0.26957287140217    0.83464867702974
H         1.35726178034897   -1.37371804552600   -2.57983428097543
H         2.26435263140796   -2.65831097248391   -1.83284204105252
H         3.34207156362732   -1.47972918094685   -3.68012370125485
H         4.52385720627490   -1.69513067335397   -2.39232415636782
H         2.46546029560148    1.37504190774750   -3.13539435943965
H         3.68385282616278    1.39415783107763   -4.41192098519390
H         3.29319728908802    3.32086968602608   -2.23841662454420
H         4.84235804490603    3.23096142958965   -2.95458409768693
H         5.36749811969289    2.46238522422780   -0.78985602215229
H         5.43627180671095   -0.27166751554084   -1.20362581734128
H         6.20217667832713    0.77823827225995   -2.36102816417037
H         0.26728159962328   -0.38551247829743   -0.62343381281554
