33
 energy: -44.344360050553 gnorm: 0.120395194726 xtb: 6.4.1 (79825abcba525fcdf90b791dcacef51065a7a4e7)
C        -0.10121786731834    1.95313935988676    0.46626627230593
C         1.25539107560601    1.39784610195277    0.11684491679734
N         2.29687134316783    2.17338351336511    0.10930761098854
C         3.46098890235832    1.34852827222885   -0.31726748217291
C         3.88746329898888    0.27059195099332    0.72009131932385
N         3.43702903910736   -0.99189961456561    0.00989066063558
C         2.30022796507848   -0.83873231689627   -0.60328600106664
C         2.26677103549728   -1.50363063079340   -1.98340029424067
C         3.56277776875562   -1.25458444335600   -2.86093940750551
N         4.25143661694727    0.06749255356973   -2.90177379904893
C         3.54473354319720    1.27722205313792   -3.34553224109009
C         3.89199097517675    2.47567555560246   -2.43245177206434
C         4.59160804955305    1.86759351631211   -1.21194691889136
C         5.17758450833751    0.57939784791217   -1.87055001082914
N         1.27197018708986    0.07208010515362   -0.31391527316137
H         0.11576961373587    2.60075384608698    1.30888886193684
H        -0.83532736570523    1.23799754822858    0.84242178519558
H        -0.37496221683717    2.42569631759307   -0.49397471563292
H         2.99743455591334    0.74947672003658   -1.06369236165918
H         3.21316867617055    0.44425789229438    1.56910118753430
H         4.94486867771661    0.25647773693101    1.00439665608639
H         1.33184298985496   -1.21207980005693   -2.47771190592508
H         2.24017718814622   -2.59596774344906   -1.91318086317462
H         3.22200951656245   -1.32327032291894   -3.90563647748552
H         4.43887263805324   -1.88990452131980   -2.67827352185530
H         2.49514710586994    0.97099756265137   -3.26890087028674
H         3.70141808409174    1.53754173836374   -4.39815777661744
H         2.97401834071564    2.96773531226213   -2.09817746661620
H         4.57551089604037    3.14832938913788   -2.96701258540795
H         5.37498965519165    2.41929436062135   -0.68512809716812
H         5.38161354154688   -0.18452307984346   -1.11586025714859
H         6.07060807114143    0.85081843658607   -2.44557829719473
H         0.36060939369812   -0.28152647005203   -0.60559162433155
