33
 energy: -44.351401393843 gnorm: 0.116653328512 xtb: 6.4.1 (79825abcba525fcdf90b791dcacef51065a7a4e7)
C        -0.08039063017556    1.83237858154624    0.54610408620321
C         1.23718347446811    1.29426158687552    0.05086445540563
N         2.20145262063485    2.16077324007800   -0.02355870292389
C         3.42567425766953    1.37396744095104   -0.33937537674008
C         3.77656491953181    0.32223109974371    0.75180141959587
N         3.47905859936184   -1.01215350490872    0.09448211157990
C         2.36387981152067   -0.88945366968630   -0.56360873098449
C         2.22466070980484   -1.48630733003899   -1.96799769374778
C         3.49748478905355   -1.16311561631016   -2.85523966998549
N         4.18829701514468    0.15510197918764   -2.94950984265547
C         3.53674476592317    1.40406392833424   -3.36828180131152
C         4.08200306260292    2.54765054825984   -2.48199883892117
C         4.58839434852675    1.81458149241359   -1.23498740183104
C         5.17496808227193    0.54009288359746   -1.91922752782623
N         1.28085251562126   -0.07813429104984   -0.19019004665180
H        -0.07745568247703    2.91649164245383    0.58061739601897
H        -0.21074146902629    1.51460736839983    1.58237994493536
H        -0.90899179167004    1.49960370903076   -0.10427256910675
H         3.07019940836557    0.75462130586773   -1.12737505380702
H         3.21075585251115    0.52701574057276    1.67026437389066
H         4.83786455553084    0.28463651006333    1.01894295754036
H         1.25851967408413   -1.18020077963430   -2.38788647322228
H         2.16248886423599   -2.57484977299095   -1.86775606984280
H         3.19258761051706   -1.35760981982961   -3.89516391153334
H         4.30583618645153   -1.85383421881712   -2.58317997836899
H         2.44105219915529    1.40404429055819   -3.39539793278452
H         3.90317344764611    1.54603217248566   -4.39098016353697
H         3.31372688775290    3.26455303413136   -2.17812647605664
H         4.86616778990752    3.04366190629684   -3.06891990057486
H         5.31066927743965    2.43442808382610   -0.69674233321626
H         5.46620051965428   -0.28479088150622   -1.26385733520553
H         6.07559910237291    0.75532961427156   -2.50604492572038
H         0.42054477093257   -0.28929050361493   -0.69612962468697
