33
 energy: -44.345438604841 gnorm: 0.109598429853 xtb: 6.4.1 (79825abcba525fcdf90b791dcacef51065a7a4e7)
C        -0.17217030153070    1.68227924738664    0.60662434207223
C         1.13352241378146    1.12293531433866    0.10349952981858
N         2.27428774095480    1.66758820286114    0.40049095235117
C         3.41971210171434    0.91916749747084   -0.18720932828862
C         3.36060093025517   -0.47624225897699    0.49782926000795
N         2.89054984481326   -1.34006331631215   -0.65717121644740
C         1.95271313621381   -0.77384757228831   -1.35833064793554
C         2.05555023321023   -0.77459967922935   -2.88716960171355
C         3.56740692434979   -0.48744617609399   -3.26606874316352
N         4.51381250489186    0.54702986489744   -2.75814962639483
C         3.99224093898612    1.92088109104160   -2.77524229550187
C         4.70067278659150    2.60467703204825   -1.58312573664443
C         4.79961148976422    1.48083945920529   -0.54579254923601
C         5.33026451313113    0.39694137617219   -1.53581620011968
N         0.98550976464226    0.09027336652157   -0.82126326252836
H        -0.66185517901707    2.29892717197579   -0.13933474494849
H        -0.06773130520573    2.14827145059146    1.58834797591203
H        -0.88546440714534    0.88844368802257    0.89183551000515
H         3.17021781237137    0.68373485296423   -1.19379740376014
H         2.63007634547709   -0.55875499197326    1.31341268627421
H         4.30798138077934   -0.91982406878471    0.82161982176043
H         1.34243433959536    0.01434144782435   -3.15637942510320
H         1.77907966718512   -1.70525803301907   -3.39340809296666
H         3.53739627769742   -0.28013888382143   -4.34697381035888
H         4.05335220782187   -1.46304849186799   -3.13723570050261
H         2.89797846416330    1.87188940334128   -2.73694161393118
H         4.24290817680849    2.43300814878304   -3.71077888755199
H         4.28522446757971    3.53591526712957   -1.18722939825906
H         5.71219794320562    2.80999563434382   -1.95739709801146
H         5.54120659569031    1.70877787458123    0.22471338483912
H         5.10106087182742   -0.58010304476321   -1.10267702625728
H         6.39819937521176    0.51861922890048   -1.75151824815870
H         0.01428821094660   -0.16302358750600   -1.00363797028431
