33
 energy: -44.345948769757 gnorm: 0.115400766447 xtb: 6.4.1 (79825abcba525fcdf90b791dcacef51065a7a4e7)
C        -0.16330760043022    1.64125152740892    0.53368363891321
C         1.17939371901032    1.13385987054909    0.07483661356084
N         2.30161911146984    1.68811265132990    0.42068378292400
C         3.43496909170395    0.90744693128854   -0.14817561603962
C         3.30954801201940   -0.50071623942905    0.50089020415993
N         2.87892952418836   -1.38285975730464   -0.65563540649317
C         1.93008890232744   -0.82759323329414   -1.35072036831562
C         2.12608202455360   -0.79783553593092   -2.87013663668559
C         3.61357086418941   -0.50953143671872   -3.33488394065221
N         4.43770065150405    0.60047043143608   -2.77585622441216
C         4.00946284286130    2.00459108821062   -2.70618695019063
C         4.67927807907866    2.63464885183078   -1.46321903891961
C         4.82486257177127    1.41513855805814   -0.54645314296171
C         5.25630128932792    0.32500663541989   -1.57701005347352
N         1.01455026524815    0.12138114848750   -0.86919632376598
H        -0.77812624891874    0.76466070346284    0.70714104399235
H        -0.57796308893196    2.32247454998100   -0.21185882141221
H        -0.11470689265525    2.24922264003480    1.45472538166285
H         3.07879499115184    0.65591680838642   -1.11810762225016
H         2.62478313217511   -0.46083149617674    1.35830324107301
H         4.23212372239848   -0.98981694626449    0.83069231241047
H         1.30178185105131   -0.22628635571593   -3.31431798315596
H         1.92012610733021   -1.78940576125879   -3.28632052258299
H         3.44522651172148   -0.30056088600607   -4.40269675541789
H         4.07337430392208   -1.46804672324896   -3.06217549412563
H         2.94303225433820    2.22139441525722   -2.57580440785068
H         4.36747079898246    2.55760554396224   -3.58159669322456
H         3.95958690727622    3.32761656936954   -1.01782457132265
H         5.66041800156687    3.06646595159410   -1.70052973810116
H         5.56967072798726    1.62179720165901    0.22694949573428
H         5.10566076123336   -0.67717232875312   -1.16749276525104
H         6.34477863292348    0.40122201460815   -1.68296303455742
H         0.17179712239203    0.31590862369083   -1.41013755160485
