33
 energy: -44.341595493873 gnorm: 0.128276093055 xtb: 6.4.1 (79825abcba525fcdf90b791dcacef51065a7a4e7)
C        -0.14035236043488    1.75518230362741    0.63740908616966
C         1.13409007543332    1.03992106142704    0.26994266906592
N         2.28174735167796    1.55140923977213    0.59775188003888
C         3.35710745772756    0.86778168508282   -0.17281686412636
C         3.35046112619218   -0.56818327139593    0.42543132343369
N         2.89547496599657   -1.31104543976914   -0.81646414579293
C         1.92620115163883   -0.69984158072959   -1.43185074398488
C         2.12916736835912   -0.62405567658027   -2.94875081934898
C         3.66639538383955   -0.57196595324417   -3.33078362743561
N         4.46455794733834    0.53577082041534   -2.73106550802400
C         4.07064396279080    1.95010483245447   -2.79654323354316
C         4.50787014678369    2.53740514853033   -1.43474072478769
C         4.77368915542968    1.31721568045413   -0.54629385650734
C         5.30027424049618    0.24245075251522   -1.54837320846634
N         1.00995907485351    0.15688987046563   -0.80165993215188
H        -0.57182531832201    1.43291629063274    1.57893795817479
H        -0.84536652846233    1.61964079621760   -0.18503913044853
H         0.12518418831895    2.81892097395777    0.77253564034820
H         2.88674143010025    0.81756180606542   -1.12525019960297
H         2.62007174678325   -0.64006880087992    1.24214099159369
H         4.34247160984235   -0.93679573558607    0.70681172581903
H         1.68261124713076    0.29666529698449   -3.34409476712920
H         1.66506554550134   -1.48331138052293   -3.44385435210850
H         3.73881699573489   -0.41371608855253   -4.41795648082970
H         4.27120948881608   -1.43800384959866   -3.03292642315774
H         2.99436886674974    2.04314382955243   -2.98161931939253
H         4.54470913183440    2.49141155884095   -3.62273095310838
H         3.75518729778686    3.13085774961252   -0.90765589868696
H         5.40727992871645    3.13069003357414   -1.64567440362955
H         5.50930514196230    1.55035649059699    0.22837582695636
H         5.14128886647853   -0.79774468146124   -1.25260849092964
H         6.30357672004013    0.58249597243179   -1.83045676818855
H         0.06525320325372    0.25782176062586   -1.17319025120060
