33
 energy: -44.340722911553 gnorm: 0.133040104539 xtb: 6.4.1 (79825abcba525fcdf90b791dcacef51065a7a4e7)
C         0.03969538428345    2.04337602462089    0.45478169304824
C         1.31602973302110    1.33506937302134    0.08047429506148
N         2.40180467693169    2.03974180988939    0.18403957383092
C         3.53363278990540    1.19898771646837   -0.29514707983020
C         3.79985635981523    0.10939778669735    0.78274864514208
N         3.20921912903942   -1.13576892209918    0.14881767717659
C         2.22845482138498   -0.88932507922150   -0.66918557817632
C         2.22649737057832   -1.54967176854616   -2.05188692521378
C         3.58298127066968   -1.16353404732811   -2.77478487073879
N         4.18336723003958    0.20071841801219   -2.82123850980206
C         3.55409715049098    1.38326086724200   -3.42572901073524
C         3.79947012837577    2.50552734061046   -2.39088384068485
C         4.55094204675029    1.90515315052462   -1.19769454416868
C         5.24139124107186    0.70779807088865   -1.92308771037598
N         1.21035509667767    0.05413306620494   -0.45945138474018
H         0.33353317020286    2.95131032855527    0.97035474144958
H        -0.48774608602528    1.41195595350219    1.17238306798327
H        -0.62738355126293    2.16299803681917   -0.41757434755780
H         3.10197869706720    0.72431903376741   -1.14323898472708
H         3.31162669778559    0.43759156498253    1.70987942778821
H         4.87330116148975   -0.04948185005694    0.92974656985722
H         1.30620337552154   -1.30897120254639   -2.59829199850604
H         2.24670621975376   -2.64129075210497   -2.13433666158555
H         3.66832432446218   -1.55770432118010   -3.79927453267275
H         4.26458435742934   -1.74328503490018   -2.13929554675200
H         2.49356859022855    1.13551986002050   -3.54894044592203
H         3.98676793811883    1.45008960917910   -4.43005306688350
H         2.89862415304877    3.02102113998158   -2.04551658344983
H         4.45024997684211    3.19098145738297   -2.94950371775797
H         5.30048083757159    2.60111799691954   -0.81114162218648
H         5.70542318834768   -0.02587386232294   -1.25888932427321
H         5.95019991564054    1.12040634617549   -2.65052322153647
H         0.23143299058582   -0.22952623726101   -0.50349804354329
