33
 energy: -44.341488171062 gnorm: 0.117674466692 xtb: 6.4.1 (79825abcba525fcdf90b791dcacef51065a7a4e7)
C        -0.14379959313975    1.76585633149547    0.44140589084435
C         1.19581780539464    1.17873728632511    0.07870743820422
N         2.29195268784063    1.58084402323481    0.64703369625689
C         3.41509451555316    0.89798940551530   -0.05281212913433
C         3.41242881959203   -0.55061895879264    0.51416857166451
N         2.91646638869744   -1.32900359747002   -0.68970001413502
C         1.98702158067418   -0.76439912830591   -1.40322414463016
C         2.12690776085288   -0.86893520741875   -2.92553445994189
C         3.59979415982922   -0.47559382342462   -3.35868638155485
N         4.38295218301415    0.62458006657798   -2.72616209011203
C         3.85623792627611    1.99510876809686   -2.66276313639065
C         4.60206910586427    2.56988846430575   -1.43640322870306
C         4.79978437815729    1.35318911840817   -0.52568302548352
C         5.21294393004351    0.25918419402345   -1.55962061458915
N         1.12698935124394    0.25350890416553   -0.96182117313764
H        -0.96802793540248    1.06082299203074    0.45015449160402
H        -0.39568612849817    2.66789551683962   -0.11958967019613
H        -0.08297908264037    2.21611270555590    1.44832140916897
H         3.04726742086711    0.72300882919105   -1.03514634956430
H         2.88895483156484   -0.59828772237360    1.47819840643945
H         4.41771284278122   -0.91217950544984    0.75461166217602
H         1.31337155836845   -0.34587251557745   -3.44322218518364
H         1.93262674340794   -1.91714839207924   -3.17521903679901
H         3.51677932624780   -0.30377393283433   -4.44303834719945
H         4.20276494663149   -1.36549997788151   -3.13725033164462
H         2.76275913533435    2.00782296699779   -2.58914263870491
H         4.15612009295127    2.61195008407045   -3.51711340522870
H         3.85867367636864    3.29698322687772   -1.09694437165219
H         5.59865428861160    2.94553982346812   -1.70309023023450
H         5.51297128013139    1.53295075007763    0.28342069608861
H         5.01368441198597   -0.77808271362386   -1.27831532811468
H         6.29845311769017    0.29592477823466   -1.70840798795749
H         0.36233508851515    0.29169653744850   -1.63601459800327
