33
 energy: -44.345648940520 gnorm: 0.120085600644 xtb: 6.4.1 (79825abcba525fcdf90b791dcacef51065a7a4e7)
C        -0.01201700685102    2.02822673862265    0.39066460607215
C         1.28615579405477    1.32844269044543    0.08101419458435
N         2.35532293174255    2.06317832382684    0.13794773707218
C         3.52167734129147    1.26616187324652   -0.33311949736507
C         3.88598443528695    0.18843577244590    0.72788342402794
N         3.33615136514630   -1.07667993729656    0.09675206817680
C         2.32994586128873   -0.82513917616514   -0.68813025577223
C         2.30842728707092   -1.60368248348377   -2.00772560866710
C         3.65010706286544   -1.26072010505074   -2.77844252360099
N         4.06003475285065    0.17131404613280   -2.84946035300905
C         3.29729711881028    1.37270680917852   -3.21645215441220
C         3.84686772140517    2.51447063908561   -2.33048264295204
C         4.63969076274959    1.87961172784282   -1.18276939232088
C         5.17005701840771    0.66616625406620   -2.00910845239930
N         1.26307352771641    0.07212705216509   -0.52282595668183
H         0.22528163350806    3.08302495083541    0.47779095127527
H        -0.33176134225698    1.67968291625163    1.37459463820264
H        -0.79258480368018    1.86770404910038   -0.37435511428503
H         3.18481033726629    0.69128231095018   -1.16193166185803
H         3.41419748422533    0.44608625681396    1.68531966304880
H         4.95304721817009   -0.01677701783779    0.86352855854020
H         1.41190901822364   -1.19125948468879   -2.48689007298155
H         2.28146554465461   -2.69656095313660   -1.94666751066150
H         3.77020640919816   -1.78363568900675   -3.73988318910784
H         4.40935996433205   -1.75666646250433   -2.16028971044488
H         2.23448543812682    1.21452058709967   -3.00038284899896
H         3.29561508557855    1.58300937847753   -4.29167627155731
H         2.97847574298388    3.08802890896564   -1.99364120214805
H         4.49323750394120    3.20424039538981   -2.88891053732537
H         5.39437012102296    2.44269709915910   -0.62689839712705
H         5.44767228478849   -0.10779320258775   -1.28891668559933
H         6.03744627609427    0.96560574697138   -2.60893310471869
H         0.41262542773783   -0.21687354291117   -1.00646620362464
