33
 energy: -44.345465812596 gnorm: 0.130285808011 xtb: 6.4.1 (79825abcba525fcdf90b791dcacef51065a7a4e7)
C        -0.03890842265810    1.78867498453346    0.67248258090297
C         1.20652834634217    1.19197400921355    0.06943292275622
N         2.34516886116891    1.61192685395610    0.53131344468287
C         3.43588261911066    0.81714715433294   -0.09812352155122
C         3.28360063845273   -0.61067806028567    0.50026243844841
N         2.80306484228144   -1.35864268002664   -0.72888166444389
C         1.93947848291838   -0.71463254980304   -1.45773835710049
C         2.15504212023529   -0.81958064582976   -2.97115925902649
C         3.67268835893465   -0.54497349036117   -3.33595122183286
N         4.44186030755639    0.54093694378667   -2.66291400386907
C         3.93349580115232    1.91368243133622   -2.79303553484419
C         4.39338433476329    2.55711825917894   -1.46446963898024
C         4.78233331878527    1.41686279122762   -0.51715972620692
C         5.36355084854130    0.37184061400053   -1.52049882927897
N         1.10063832085388    0.31913476273133   -1.01242826492563
H        -0.77900215748958    1.01522266380806    0.84722146341120
H        -0.55773941622185    2.42341353406371   -0.04846048881920
H         0.14136344899868    2.31113368053855    1.62895931903099
H         3.21808312543940    0.68629658329814   -1.13075947003962
H         2.55309161063962   -0.69953985765947    1.31519249051447
H         4.14800758579459   -1.22305562177471    0.77762361935029
H         1.40451702819474   -0.19059875650122   -3.46565918779931
H         2.02564938972069   -1.85275942229612   -3.30974087824460
H         3.63853074869028   -0.21278153511820   -4.38510063243785
H         4.20891339010221   -1.47109983453430   -3.09244892998427
H         2.83756052358222    1.91213332388565   -2.80721167064180
H         4.35820900096348    2.37391239239874   -3.69200382427433
H         3.66253380987196    3.16961595932842   -0.92852192613562
H         5.25014631352561    3.24365230321861   -1.47138659232888
H         5.38890595709418    1.78485334437630    0.31485663092101
H         5.25734884191134   -0.63335779925545   -1.10449769894879
H         6.39530313555404    0.51455172314252   -1.86246155374291
H         0.19326189254789    0.31519984247205   -1.47862965059853
