33
 energy: -44.345379784336 gnorm: 0.136432990166 xtb: 6.4.1 (79825abcba525fcdf90b791dcacef51065a7a4e7)
C        -0.07336628885684    2.03907457936849    0.40714987970599
C         1.24337798459696    1.36678025309954    0.11553618943414
N         2.36993270032348    2.00552622057782    0.21079526736392
C         3.48946128715407    1.20958359791022   -0.36422929831185
C         3.91092205475710    0.18441299571673    0.72725430865046
N         3.33592746933951   -1.06179305917854    0.08110212443710
C         2.27804336584236   -0.85833909130344   -0.64776702014671
C         2.29462622005273   -1.59217079845223   -1.99281000810893
C         3.64737977530984   -1.16593676237913   -2.69999791268414
N         4.21624582540641    0.18797915133664   -2.95905227973264
C         3.36794422596203    1.33478097249201   -3.31264276874792
C         3.89687231679995    2.50290806617050   -2.44875120342814
C         4.56847033173885    1.88434903810116   -1.21781629417534
C         5.17908108873873    0.63829030785352   -1.93270556724908
N         1.25263029353136    0.05508129933623   -0.35652834768479
H         0.12621837407611    3.00944235972179    0.84879820131197
H        -0.74474214014412    1.52488864503209    1.09758801765830
H        -0.61009709914283    2.05344807885121   -0.55826310643584
H         3.06145303700602    0.73057831689465   -1.21173054853665
H         3.41011151208088    0.40538178983874    1.67910116788508
H         4.99038914820397    0.02940255693817    0.82653890208860
H         1.37020712101737   -1.26688586186761   -2.48583673449318
H         2.26827459267597   -2.68355741506079   -1.90902925928442
H         3.45576876576070   -1.48516597986067   -3.73614976074186
H         4.45774291588531   -1.80643707741073   -2.32903756435516
H         2.29683696882034    1.19838660789533   -3.12448508251085
H         3.48664810291380    1.68009489304617   -4.34560191092510
H         3.10500896024843    3.20670084574653   -2.17642048259973
H         4.70211977424800    2.98788290611022   -3.01601997899679
H         5.27709701259711    2.59272583647431   -0.78003875829871
H         5.42532826644926   -0.15362127802202   -1.22066762933517
H         6.17876218281090    0.89393969150613   -2.30297418795865
H         0.36639435992484   -0.23693368187921   -0.76884414887276
