33
 energy: -44.343224603992 gnorm: 0.118850326110 xtb: 6.4.1 (79825abcba525fcdf90b791dcacef51065a7a4e7)
C        -0.07726851361480    1.88610759787850    0.65301749468959
C         1.18194702405455    1.26525137386390    0.10552551213866
N         2.23983086922916    2.01132567962029    0.20775625631258
C         3.47851643285577    1.42200125336903   -0.37179264849035
C         3.77543364449560    0.34588379413756    0.71160560588373
N         3.38057467404207   -0.93218227433035   -0.00379251099526
C         2.29581239545286   -0.79645321574793   -0.70851298481942
C         2.25808360220276   -1.61211686279234   -2.00512162526182
C         3.57055549633111   -1.23269925779409   -2.80836018110024
N         4.19536460101560    0.12114632003509   -2.83120261555844
C         3.50767878195959    1.31609937027479   -3.34009520670646
C         4.08317171165943    2.50469438251126   -2.53595327521434
C         4.64338870015235    1.91306248780635   -1.23788219577707
C         5.21544135768151    0.61087532054093   -1.88102980890143
N         1.16903862826862    0.01919856504394   -0.51951084986714
H        -0.01273510709781    2.95847335504975    0.50345804020526
H        -0.11581294782956    1.70436037007392    1.72880549050263
H        -1.03609950768050    1.51251563718161    0.25129500933706
H         3.06984246151681    0.86881862143875   -1.18288453553839
H         3.28128810738811    0.52707827294996    1.67526508657587
H         4.82842768260846    0.26857245396697    1.00205591600479
H         1.38619943114694   -1.33557631467647   -2.61074496385407
H         2.31920205138789   -2.70276245356257   -1.93032123499084
H         3.25646316833508   -1.46674029341677   -3.83734197242332
H         4.42006873354011   -1.89302386740866   -2.59193624448968
H         2.45992383168971    1.20778859056610   -3.03718295520806
H         3.58270904694140    1.53200512318369   -4.41158578733808
H         3.31432681781634    3.27933952944439   -2.46288965058142
H         4.97530799322453    2.94209473874631   -3.00306322713625
H         5.38964192750346    2.49119934911792   -0.68610098100612
H         5.42841254675515   -0.20499439293990   -1.18550156673821
H         6.12306110451583    0.94136665504194   -2.39950798442311
H         0.22816550952010   -0.30186152286393   -0.74835443440082
