33
 energy: -44.346149388006 gnorm: 0.135100700840 xtb: 6.4.1 (79825abcba525fcdf90b791dcacef51065a7a4e7)
C        -0.07556294650176    1.93898089800145    0.38742885526079
C         1.24861422856392    1.27212139153544    0.11782374572986
N         2.28701089817503    2.04345796188259    0.23170303041680
C         3.44927387282331    1.33703167793412   -0.37462101890659
C         3.90360654335820    0.33498974202347    0.72512176812828
N         3.49694802102925   -0.95495944594999    0.03822956788682
C         2.33242435769086   -0.92857560723572   -0.54052000244609
C         2.28729123596186   -1.58231449581767   -1.92562400022260
C         3.52381819070977   -1.16438600528760   -2.82455071164346
N         4.05441359938032    0.22895271532660   -2.85424528018894
C         3.41942152133215    1.45458887522999   -3.35862342382506
C         4.06347410591556    2.54219578763609   -2.46817301138082
C         4.62037039129149    1.85034406630467   -1.21914633600072
C         5.12090860745465    0.52551156838479   -1.87554170024513
N         1.25784472760616   -0.06832604848258   -0.26506024379387
H         0.06447732314633    3.01444244612356    0.37093366125348
H        -0.49288629854638    1.55648385249662    1.32090342387112
H        -0.75376603069630    1.56129696294400   -0.39851275857465
H         2.96993448639287    0.88077696130347   -1.20706373731979
H         3.26185474866594    0.38181489097015    1.61484807104142
H         4.99409404663907    0.26401829591237    0.79537087541197
H         1.33036762150824   -1.33646522566466   -2.40237513820167
H         2.30416415789115   -2.67447080324598   -2.00144136719444
H         3.19207319199744   -1.40970502036103   -3.84533303664286
H         4.37363603539305   -1.76741516938792   -2.48001317960817
H         2.33079452630243    1.37003805339797   -3.26365018591328
H         3.67172927796665    1.63232141852845   -4.40985548216160
H         3.36187089024590    3.34220630740566   -2.21465384381255
H         4.85520481290824    3.09172083979875   -2.99410326259034
H         5.38976348375612    2.42442061110525   -0.69563031762380
H         5.28795038794811   -0.33076822271474   -1.21702699322848
H         6.07511467139461    0.71707421573914   -2.38013290918111
H         0.40936573444842   -0.36614700246264   -0.74680424638911
