33
 energy: -44.349410089390 gnorm: 0.119483199650 xtb: 6.4.1 (79825abcba525fcdf90b791dcacef51065a7a4e7)
C        -0.10617832614266    1.85911934869371    0.45485350750397
C         1.25233434825936    1.38639537493491    0.00562188676120
N         2.30813466703317    2.14076948615774    0.05462806050507
C         3.47579621963994    1.33091835237990   -0.39060198968082
C         3.78624173559795    0.30353824383418    0.73547708771197
N         3.36127047446105   -1.03219150186896    0.15548879483289
C         2.28738023047577   -0.91570605348042   -0.56904788210862
C         2.22553785216758   -1.61131974727775   -1.93294732828875
C         3.48365853831269   -1.13866790214819   -2.77286692209967
N         4.17231697491021    0.17911420311880   -2.88691037198690
C         3.49666658540791    1.40715195667361   -3.32874299630116
C         4.05081145983168    2.52861129824153   -2.41998182697695
C         4.67332699637169    1.82659691898313   -1.20816083115789
C         5.26087960796144    0.60586165351968   -1.98350711247659
N         1.28126159736722    0.03400252459965   -0.33154492875015
H        -0.15359487690760    2.91287086808328    0.70755948416886
H        -0.49807668388868    1.29034591233579    1.30028238561563
H        -0.70815657172774    1.77262346885492   -0.46734465567427
H         3.09844583058996    0.68762502817038   -1.14867578001439
H         3.20019788040922    0.57599018052942    1.62315573993237
H         4.81746166423599    0.18150605006702    1.08308098789621
H         1.38307720663219   -1.17552208606519   -2.48410680524669
H         2.31568084877898   -2.70188473528268   -1.97010383773817
H         3.22552208557035   -1.43376389504959   -3.80170930333459
H         4.32057582860332   -1.80422929748007   -2.52560566583849
H         2.41935397065672    1.21316114198295   -3.27358336916110
H         3.59687509734664    1.57006602466716   -4.40751737466689
H         3.29138642355783    3.25014122792150   -2.10501509120401
H         4.79123593718598    3.15257471950989   -2.93753294953041
H         5.39467835928782    2.41132580297861   -0.63080221631401
H         5.51595364938927   -0.24295270045064   -1.34381103062191
H         6.12998066034606    0.91260086562826   -2.57713339353099
H         0.41299213158474   -0.48099016489236   -0.47845258793174
