33
 energy: -44.342234277298 gnorm: 0.126916276441 xtb: 6.4.1 (79825abcba525fcdf90b791dcacef51065a7a4e7)
C        -0.10236882473421    1.88608538730813    0.53101220642142
C         1.17997399449150    1.30465529694445   -0.00598860948143
N         2.32149888547145    1.73262547024345    0.44117901967129
C         3.37016472428037    0.82321597696253   -0.09807657093750
C         3.39373343267828   -0.61902756934016    0.48443398731586
N         2.84709547477375   -1.47344885143343   -0.64353420700256
C         1.95149934288125   -0.82945787161576   -1.33269741387394
C         2.13905413279667   -1.14978803868560   -2.81935024875984
C         3.46006906537643   -0.50089814196467   -3.40722263915388
N         4.27766075821512    0.53847338613467   -2.71797900822569
C         4.13244407442420    2.00064219123604   -2.74574226562848
C         4.47155571650941    2.58968554165292   -1.35699257068860
C         4.75193044893302    1.35816729209371   -0.48888384664288
C         5.24374691997821    0.38969618287817   -1.60993461756156
N         1.12706887490800    0.20330784040708   -0.85905357534019
H        -0.67674186463035    2.39133556617838   -0.23796037428803
H         0.11229599975011    2.64234470104492    1.28852685956610
H        -0.64489976007365    1.14776442553964    1.14814362329273
H         3.01743672503528    0.72247758479454   -1.09624000915386
H         2.83948244282686   -0.66832192929188    1.43102090372357
H         4.45912889845946   -0.82915434331498    0.62555146941074
H         1.27760119820063   -0.83719847065427   -3.42236184648281
H         2.23876838173738   -2.23752532720956   -2.89500141299928
H         3.14758906234341    0.01398591742857   -4.32889687883005
H         4.20958317997396   -1.26082077035178   -3.66273561156914
H         3.11501530785922    2.28354533942316   -3.03913964277241
H         4.79190890308966    2.45251982630494   -3.49490824155559
H         3.69997777823851    3.23766004671182   -0.93116113792576
H         5.33047997993100    3.25758288160264   -1.50389454044627
H         5.44503214538841    1.54887015465270    0.33503430376955
H         5.35872913061557   -0.65891829355895   -1.32367172423829
H         6.19190540102892    0.83289893975940   -1.93610110027941
H         0.24870058441953    0.16501271006256   -1.37644505666147
