33
 energy: -44.346645402171 gnorm: 0.117441238516 xtb: 6.4.1 (79825abcba525fcdf90b791dcacef51065a7a4e7)
C        -0.09137471298402    1.90219853566495    0.47260771788392
C         1.23604964852865    1.41298309321234   -0.04647467353563
N         2.30851899964608    2.13915577213111    0.04668630831153
C         3.48931605321359    1.32374900184988   -0.35124871297990
C         3.85452876435580    0.29297090133065    0.75512219466266
N         3.33965841154410   -0.99546966322708    0.14194164905935
C         2.28871806762711   -0.83557011688155   -0.60753754204423
C         2.30009152322973   -1.52651421014203   -1.97516012038836
C         3.59494739698776   -1.22482447492978   -2.83775152546143
N         4.16584477877142    0.15279690695091   -2.83130529669627
C         3.45952446895246    1.34909009660661   -3.31066995293882
C         3.87132948211732    2.49972759735418   -2.36354565316863
C         4.64347205087733    1.80033182890811   -1.23948990385704
C         5.25492994036188    0.52813237436810   -1.90597495138136
N         1.23376615267705    0.07472520401251   -0.43704515899830
H         0.03638128215656    2.92894697923570    0.79813337460077
H        -0.30085081240553    1.22819070580889    1.30547670862010
H        -0.81871109153402    1.94750503111823   -0.35759581753137
H         3.13769213516993    0.68293057515364   -1.12365265985999
H         3.29014196731982    0.55498513448702    1.65981381930293
H         4.89374574456757    0.09152259610965    1.03544614776638
H         1.47323715053142   -1.18764200980357   -2.61148848610346
H         2.31124170161916   -2.60297942778227   -1.77531847615998
H         3.33233865664348   -1.46339357440442   -3.88003467026950
H         4.46659317552551   -1.87919194632112   -2.70899789099473
H         2.36827576480413    1.24943098251923   -3.33351329358687
H         3.71312709945808    1.68962745738565   -4.32064862296459
H         3.04122413553970    3.05949943307498   -1.92295913698232
H         4.50637017798663    3.16677620355161   -2.96119722138306
H         5.42404885795562    2.40483265214592   -0.76951412393173
H         5.46188195647961   -0.28560787768250   -1.20614831642282
H         6.14451296674446    0.81434507307062   -2.47916085249196
H         0.29037561103267   -0.30083373558803   -0.53533539867694
