33
 energy: -44.344037743549 gnorm: 0.122682556222 xtb: 6.4.1 (79825abcba525fcdf90b791dcacef51065a7a4e7)
C        -0.16664507247345    1.62145513630925    0.71228553708686
C         1.11787672241845    1.16293993482473    0.07150377738651
N         2.22506131920471    1.70354544206258    0.48148449514906
C         3.36760746219221    0.95400350338957   -0.11037474425040
C         3.24596595254513   -0.48622378666535    0.46485486460793
N         2.93477701247346   -1.34242749183254   -0.74809097819637
C         2.01613414329270   -0.73247362024038   -1.43788376118801
C         2.14404305594654   -0.85830083750767   -2.95963651161808
C         3.65034140646634   -0.51920097847910   -3.31714027125269
N         4.45463517806395    0.58159248360399   -2.71284618990212
C         3.99650593097819    1.97698272176935   -2.76576056587489
C         4.69846239156883    2.58818012304338   -1.53113943685209
C         4.76206856211658    1.45424010890022   -0.50206499340328
C         5.16287975909649    0.28164313844689   -1.45124424801622
N         1.09818502755077    0.20753356838596   -0.94353099590824
H        -0.55030744991656    0.78936740961499    1.29274579066403
H        -0.99172403163867    1.83089586803820    0.02875293123292
H         0.14143463166802    2.52578360275278    1.26688964673792
H         3.10860996132062    0.83694906043857   -1.13512546824490
H         2.56415829374780   -0.52626868276551    1.32461388591980
H         4.15766379131581   -0.94792995055954    0.85826221635222
H         1.41118221033859   -0.24967345822348   -3.50362548581811
H         1.87237862668174   -1.89666084024371   -3.17607431368691
H         3.65168616504332   -0.17944996649990   -4.36442254687441
H         4.16801664339651   -1.48488753263396   -3.25387509621544
H         2.92118347337584    2.18359510509458   -2.81340957411137
H         4.31372674284230    2.44358502232657   -3.70490387427895
H         4.19171283143644    3.48811511172331   -1.17078159928140
H         5.71946196956846    2.85934120853396   -1.83022045096397
H         5.46526063124929    1.63103809964642    0.31638599231303
H         5.02430428632609   -0.70835219034673   -1.00912916885540
H         6.24747575869026    0.25225411373059   -1.60810581876847
H         0.24754347264367    0.26228698861154   -1.50397921717279
