33
 energy: -44.345004671731 gnorm: 0.124786621614 xtb: 6.4.1 (79825abcba525fcdf90b791dcacef51065a7a4e7)
C        -0.06369136859996    1.77823340459317    0.50957595579185
C         1.32600959742992    1.31645945735409    0.15414697869810
N         2.29993218176195    2.17345298715742    0.09728640223252
C         3.42766940544741    1.35418616451799   -0.42667237802193
C         3.79009661578390    0.32557017873915    0.68262293272288
N         3.48124666978453   -0.97820563856463   -0.02867256918855
C         2.38037164085354   -0.80498267703429   -0.69936661778349
C         2.16774072040796   -1.50371729806361   -2.04639395362042
C         3.53316946120881   -1.20780361296279   -2.79457295924466
N         4.12296621659405    0.15890460554524   -2.88431975439478
C         3.47001968609997    1.41825720055417   -3.26836157842131
C         4.05900910895417    2.56070218488604   -2.40899821856227
C         4.65982865515389    1.81167238570106   -1.21449826059903
C         5.17208458880679    0.50848890799303   -1.90433969665879
N         1.29768093434795    0.01378231630525   -0.34154894814373
H        -0.54789188710421    2.27691666317803   -0.32310992394187
H        -0.10253340427758    2.47729889424486    1.34721327289113
H        -0.67234714193474    0.92246315931522    0.85236485744492
H         2.96836776082410    0.80317500226684   -1.21173555537357
H         3.15236760387216    0.44337178478102    1.56866770797217
H         4.80948368321537    0.32256903061948    1.08259277621381
H         1.38904733715656   -1.05739587110597   -2.67716341402552
H         1.98761877944533   -2.57740033921893   -1.92977840411184
H         3.36897456314226   -1.38422419052070   -3.86888601387810
H         4.35070588835794   -1.86521771401498   -2.47211126544093
H         2.38759921148325    1.29864900636899   -3.14451776499213
H         3.78154890179228    1.68943736132350   -4.28312646361702
H         3.23468936632775    3.17479458630209   -2.03493491109922
H         4.84205307420873    3.14346571722531   -2.91163798957482
H         5.46869934815138    2.38155870707993   -0.74914203650008
H         5.27281424797793   -0.39357674886842   -1.29533169689657
H         6.12710709374958    0.70511820083220   -2.40542520300051
H         0.35155006147200   -0.35506307503118   -0.43891756793543
