33
 energy: -44.341980222961 gnorm: 0.127709937683 xtb: 6.4.1 (79825abcba525fcdf90b791dcacef51065a7a4e7)
C        -0.06291086350617    1.93430655810796    0.48484493541294
C         1.17393681402931    1.21812942766549    0.00721343144512
N         2.30026588335470    1.61678114301986    0.51579566423039
C         3.35256597398017    0.70537975307838   -0.01291427637344
C         3.32912100296169   -0.78217125079878    0.44159947623480
N         2.88272995331284   -1.48276131862736   -0.82767966932775
C         2.00392852181675   -0.74988336359762   -1.44603271536708
C         2.09615489114973   -0.68431659908371   -2.97414263743299
C         3.58549414766193   -0.36649420691128   -3.41299328600517
N         4.41517667661387    0.67891454674894   -2.74774633668598
C         3.88367798679812    2.03331315307068   -2.54059947918065
C         4.62913813090215    2.50651257360235   -1.27136114351845
C         4.73160776818229    1.24748437620458   -0.40348564086530
C         5.24329081040085    0.34565190576477   -1.57029890393629
N         1.09726032205175    0.19014988309692   -0.93132984124466
H        -0.91378003498622    1.83504504430957   -0.18048935179067
H         0.15260563570909    3.00165559331067    0.56330650011661
H        -0.37818902104970    1.46908437569910    1.43588478923339
H         3.06438415392295    0.64443238564883   -1.03474212534646
H         2.67798861541915   -1.05853066653012    1.28142263575690
H         4.21431404117061   -1.36423368628883    0.71867614802186
H         1.34826656339625    0.01402961506487   -3.36963212307036
H         2.05291265768793   -1.68851681546749   -3.40836656480081
H         3.64704823300906   -0.18365440825459   -4.49697364844625
H         4.12618640468907   -1.28907921710570   -3.16595190561682
H         2.79991035825185    2.17408452137660   -2.45748122241211
H         4.12558021388652    2.69596038233259   -3.37888276586664
H         4.19800336618194    3.38954056727036   -0.79081952204898
H         5.62701560343187    2.85327164663884   -1.57038726669424
H         5.50572574270728    1.19912036784153    0.36722891060803
H         5.09728080754908   -0.71084388844030   -1.33101376841605
H         6.26463239206735    0.57603041112253   -1.89526793371879
H         0.20198495445140    0.17399265258529   -1.42011626632986
