33
 energy: -44.343194941374 gnorm: 0.117715609453 xtb: 6.4.1 (79825abcba525fcdf90b791dcacef51065a7a4e7)
C        -0.03662596896044    1.83321488271084    0.58287750308772
C         1.27435265846941    1.33437052387212    0.03212978687678
N         2.31746888553958    2.10405500187435    0.10756563982510
C         3.46774805605478    1.28186032937649   -0.35974144230048
C         3.80206237075781    0.21924404777233    0.72608587696317
N         3.34551097858296   -1.06854810195842    0.06706148604204
C         2.25096992339156   -0.91115542214235   -0.61775231335091
C         2.16536086551108   -1.45484558669196   -2.04778612454676
C         3.59034106467064   -1.18286875944486   -2.68590241175303
N         4.18378847519937    0.17127073270131   -2.88066493917587
C         3.56924537313364    1.37263929404606   -3.46277025184207
C         3.95971336800174    2.52765800328017   -2.51194903539310
C         4.55763162522983    1.85900168874419   -1.26926951405228
C         5.23429868156480    0.62604956559408   -1.94641445620711
N         1.21291812830222   -0.00070076465582   -0.36447472281314
H         0.03683465097130    2.90115476913863    0.75783134412553
H        -0.21712653263410    1.39936505631247    1.56828676401106
H        -0.82392750350140    1.59899198400818   -0.15577310688750
H         3.02210029923659    0.65914933920996   -1.09766053703269
H         3.36082367204217    0.54294108725749    1.67802047554231
H         4.87286503139565    0.09887633942395    0.92109394643515
H         1.43774385014355   -0.84213643774886   -2.59422668793774
H         1.82013918559128   -2.48962443011527   -2.14208935725957
H         3.76096067898424   -1.73833080807570   -3.62109414150484
H         4.30147238349480   -1.63448941782737   -1.98243124519863
H         2.47341854726598    1.38604395766935   -3.47893723553179
H         3.94389900264382    1.56175411430840   -4.47480144768488
H         3.05802690451244    2.98565826443491   -2.09513594399999
H         4.64782881069731    3.28103700864889   -2.91733173364536
H         5.36533575347843    2.34859929881921   -0.71835495826214
H         5.47220650148923   -0.14204238269978   -1.20601302438116
H         6.12846350921931    0.95735135010526   -2.48727130648169
H         0.26838066351732   -0.14575428867622   -0.72154565789909
