33
 energy: -44.335896745871 gnorm: 0.146386255785 xtb: 6.4.1 (79825abcba525fcdf90b791dcacef51065a7a4e7)
C        -0.09815834677455    1.84596207185711    0.51572737452460
C         1.18606929275853    1.22962384404453    0.02407682136545
N         2.29628813498280    1.57597337872081    0.60170331124039
C         3.36835645842073    0.80565439065175   -0.08735426603199
C         3.31327662768535   -0.62656889725349    0.51733001603054
N         2.93952016356002   -1.38002762833046   -0.74511483652661
C         2.03390157085320   -0.71888446843040   -1.40428645248346
C         2.16238765255870   -0.94158380356390   -2.91485619413718
C         3.58749784470763   -0.45102413042023   -3.40490161591852
N         4.34362865450161    0.61843839832986   -2.69193446986605
C         3.82010885589635    1.99018603415852   -2.62843878783066
C         4.64611882377407    2.55054136926120   -1.44763232530218
C         4.73801854659663    1.38548281348530   -0.45614207400353
C         5.24148346622745    0.38366444227694   -1.54217041438612
N         1.10358646189343    0.22245046265036   -0.93627886881935
H        -0.76444208087165    1.15088626450183    1.01516357202433
H        -0.60687405817478    2.06166723295360   -0.42582302536721
H         0.23592386183449    2.74230974067416    1.06822962289195
H         2.98747670795310    0.66281349045806   -1.06991346897674
H         2.55383848563077   -0.69108069655363    1.30773674082270
H         4.19958892266287   -1.13261685457973    0.91419379115282
H         1.40553014155096   -0.36399044234109   -3.45982310148785
H         2.07141036412381   -2.02131416210771   -3.07215801279937
H         3.63645351507018   -0.21666965561888   -4.47957088548582
H         4.26245702346698   -1.28677384959953   -3.18019475902323
H         2.74360069346961    1.85323128446460   -2.47464974757635
H         4.05551105993670    2.66465723870049   -3.45910797634399
H         4.18389258868780    3.45588331418218   -1.04360417841544
H         5.64794726504851    2.77396456486871   -1.83729856332834
H         5.43923590776234    1.50962156590336    0.37360633215105
H         5.28644938540313   -0.69820684720426   -1.39286456521534
H         6.20687862130054    0.79202368569703   -1.86321974851775
H         0.21119050435184    0.22125502270040   -1.43056545211362
