33
 energy: -44.350311299425 gnorm: 0.111295564935 xtb: 6.4.1 (79825abcba525fcdf90b791dcacef51065a7a4e7)
C         0.01278779407504    1.97818493244009    0.35902716225724
C         1.27856572422739    1.23096694968830    0.02690483897790
N         2.39932232615874    1.50421223363464    0.62309096438389
C         3.47924800780186    0.69157149728531   -0.00212717760768
C         3.36811996200244   -0.77024382605065    0.51814863464332
N         2.82333520806004   -1.51742721347935   -0.68438515351080
C         1.97294466460584   -0.79766562790220   -1.35560919897870
C         2.14101419641742   -0.91308595660539   -2.87427815495660
C         3.54108426099173   -0.38662909002628   -3.39809047128526
N         4.29851907721413    0.72187542900063   -2.74900166590962
C         3.81483785155880    2.10260710910428   -2.60961461910039
C         4.42856577113428    2.54858150479195   -1.26238065879212
C         4.80792170602410    1.28513526453968   -0.48221876207534
C         5.20861337421286    0.33248706739182   -1.65204016858061
N         1.10607845454162    0.21205617719554   -0.90880541721727
H         0.17425802348362    2.51570466175943    1.28719784641186
H        -0.82183022758607    1.27457127301611    0.34568101310585
H        -0.11394070626398    2.75033044656526   -0.42074202932061
H         3.08048195235974    0.55241587626218   -0.97809687027194
H         2.61317238533961   -0.85008296789332    1.31145230928611
H         4.29698839313087   -1.27574366527778    0.80241650716535
H         1.38034575170713   -0.37581128197127   -3.45406755761647
H         2.16197614754197   -1.99684609773806   -3.02875448036493
H         3.36579487407077   -0.04222410686165   -4.42905679366558
H         4.28454348839133   -1.19393860928078   -3.40586019681666
H         2.72907141905413    2.18208424932565   -2.73639052218687
H         4.13852831633809    2.81314853421747   -3.37817968993330
H         3.86492503872413    3.33654377209288   -0.75448257787507
H         5.36391374340369    3.04438672114115   -1.55344643244070
H         5.53376451608531    1.42393754991833    0.32368741796664
H         5.03219333799796   -0.72039700968471   -1.41736859392549
H         6.27705885731812    0.45589666435313   -1.86420064567250
H         0.42603205602108    0.44412961605484   -1.63293940056278
