33
 energy: -44.345233395811 gnorm: 0.115505478330 xtb: 6.4.1 (79825abcba525fcdf90b791dcacef51065a7a4e7)
C        -0.09343607904728    1.88015276574448    0.53642446925020
C         1.26817235849364    1.39999618921728    0.10479286108369
N         2.31973646677856    2.14973599529421    0.24006812220087
C         3.46126450351268    1.38933585441598   -0.33978319030584
C         3.82592782393743    0.30620364242554    0.71557726484333
N         3.41841960099452   -0.94137317348376   -0.04511327385695
C         2.31279719626206   -0.79758927028314   -0.71495491878381
C         2.26706985689312   -1.61800930738233   -2.00830119940005
C         3.53374183925682   -1.25890867624202   -2.89052634467735
N         4.18336444364826    0.08094007271993   -2.80927450035324
C         3.51507003557855    1.28905423786500   -3.31290036068116
C         4.04305846251768    2.49431499763460   -2.50100800986554
C         4.61634084096944    1.87783792398534   -1.22031942698891
C         5.14889145026568    0.52208462236844   -1.78147659040342
N         1.28776852368170    0.12927512664670   -0.46824176089173
H        -0.04422872816237    2.68850497030406    1.25798268541918
H        -0.62182633208073    1.05053067405367    1.01009995968872
H        -0.69719450772471    2.14863806670789   -0.34884396533370
H         2.98847674731068    0.82179228418462   -1.10480706552444
H         3.14776134720171    0.57496979126384    1.53625128213867
H         4.87554566008020    0.29043504823344    1.02732816694583
H         1.39095604929555   -1.46421310645926   -2.65033518575800
H         2.41053909875855   -2.65966358989107   -1.70299591861898
H         3.23148079628888   -1.26493661663262   -3.94922113053806
H         4.35884281641626   -1.88330441240054   -2.52463154929958
H         2.43368880129195    1.22055400136729   -3.14797662326812
H         3.62564208186927    1.37302793322433   -4.39966581196530
H         3.29544822017838    3.24298238982175   -2.22331765269820
H         4.67105183312691    3.18612325925110   -3.07758721474195
H         5.39667805508809    2.47732360935284   -0.74357066798586
H         5.34972679990674   -0.29799907771476   -1.08729538613570
H         6.04189705310026    0.77985797131080   -2.36277827299591
H         0.35952787529277   -0.23804622945931   -0.67832632618106
