33
 energy: -44.344876367606 gnorm: 0.124246170278 xtb: 6.4.1 (79825abcba525fcdf90b791dcacef51065a7a4e7)
C        -0.02194664694941    1.94971974099464    0.51689417607956
C         1.20527282971833    1.22208155170529    0.03180787925000
N         2.35933111891342    1.63624416132152    0.45937662027508
C         3.44247443753984    0.78905407262113   -0.11210537157912
C         3.37205646248641   -0.64133392114514    0.49532519777664
N         2.90229492209936   -1.45815752095515   -0.69349112793021
C         1.98504883186282   -0.78268650587528   -1.32131358723278
C         2.09360469982723   -0.89548667668450   -2.84558926963598
C         3.50875954810175   -0.45726667030114   -3.40864552136195
N         4.30458067636897    0.53721223337168   -2.63308992539302
C         3.92834992266602    1.95771195691072   -2.65375886555328
C         4.43818457986670    2.58162746866382   -1.33414054147221
C         4.81340800588965    1.33605255995663   -0.52382551516309
C         5.37081039738636    0.37771870850893   -1.62267642502455
N         1.06194343218984    0.17966003244299   -0.88268582771448
H        -0.70032000771763    1.21603762664715    0.93881958038951
H        -0.56343474689932    2.36549263321026   -0.33502194444722
H         0.21491673550206    2.77650576763246    1.21016857611088
H         3.05031016625360    0.51322168396178   -1.06132566714543
H         2.70281732484574   -0.77685667769713    1.35521089209686
H         4.34917682862998   -0.99027246999711    0.84548594918842
H         1.38415095498563   -0.19744153060279   -3.30694018973348
H         1.92105723407457   -1.89246239617903   -3.26404494897627
H         3.33921375129811   -0.23855863158017   -4.47431607562230
H         4.10515575755278   -1.37849889939050   -3.39510320889774
H         2.83956043823178    1.95635046274662   -2.77950900841763
H         4.34507002397575    2.51111048061863   -3.50254113044998
H         3.76431766484939    3.23644383712576   -0.77409163674894
H         5.28041183980774    3.23439542388062   -1.59864983111095
H         5.42735192416199    1.47206296449799    0.37069819399780
H         5.43307502417269   -0.69495248727463   -1.42202928497033
H         6.35258409217164    0.69361649641984   -1.99435739537763
H         0.29154785845113    0.21589605059028   -1.55041991540946
