33
 energy: -44.343767397502 gnorm: 0.126008262351 xtb: 6.4.1 (79825abcba525fcdf90b791dcacef51065a7a4e7)
C         0.00913472624996    1.91670335745290    0.39096129422249
C         1.33201413963080    1.33512404879319   -0.03634336666827
N         2.34320065835999    2.14786942333444    0.01971923460896
C         3.51423893416505    1.30058727388987   -0.33847692721031
C         3.73519664528070    0.26942111966997    0.80512023023019
N         3.42777262998163   -1.06007986100591    0.14249018990264
C         2.35814087161521   -0.93912916400607   -0.58759292170517
C         2.31753526863367   -1.59779733277896   -1.97050001327262
C         3.50861940686526   -1.15933754705973   -2.91960692928872
N         4.11333282089126    0.20378859220796   -2.92346014877652
C         3.37872398822066    1.45049813759437   -3.18009493139220
C         3.98334273228923    2.62268092554616   -2.37323797540414
C         4.63697889282422    1.82169302792452   -1.24185030176028
C         5.14118757686702    0.50140315431052   -1.90455896640369
N         1.32109296591373   -0.01760343183986   -0.37323173749920
H         0.10247499875327    2.98317322562984    0.56540475710001
H        -0.31017189565644    1.40949117599004    1.30343958309735
H        -0.74092592352106    1.55247068125876   -0.33364368472274
H         3.10328405680402    0.68280662417806   -1.10028966876093
H         3.06974315586664    0.53690772588739    1.63654877182873
H         4.79080922599868    0.29422510427809    1.09529555093017
H         1.39577341545670   -1.28473347535940   -2.47624937305208
H         2.27286719930675   -2.69167712020843   -1.95406413045552
H         3.24387986401098   -1.50157130163538   -3.93204050363094
H         4.33851652478002   -1.78441633735864   -2.56592920861515
H         2.31816594067508    1.58085604381750   -2.93616680392956
H         3.35752987308495    1.75932512182575   -4.23105335225214
H         3.22781801623487    3.36385216393295   -2.09686238242289
H         4.74128016775799    3.11668185278184   -2.99526036358089
H         5.38746192192942    2.39723940468072   -0.69310607832653
H         5.27676518626924   -0.28098970395326   -1.15340000812173
H         6.11823112559710    0.58855856197032   -2.39405624375591
H         0.48544399016618   -0.28149128565006   -0.89548186296550
