33
 energy: -44.342441196826 gnorm: 0.117733029746 xtb: 6.4.1 (79825abcba525fcdf90b791dcacef51065a7a4e7)
C        -0.07071179980360    1.82967416641667    0.42218106053628
C         1.21858420363922    1.08551565867625    0.18813484352127
N         2.35242795125450    1.66545321906369    0.44164423291435
C         3.48117200243249    0.89522423683014   -0.15013810661422
C         3.39785283792801   -0.51169750011142    0.50832187106977
N         2.96549293407138   -1.49446281305590   -0.56331156007944
C         2.02013535252514   -0.91093490882960   -1.23974097387968
C         1.98913188986262   -0.85700581739423   -2.77077168902933
C         3.45101844628259   -0.53419196594374   -3.29078253093114
N         4.30751180882070    0.60070368416317   -2.84107482221546
C         3.94977427356291    2.02429160233930   -2.76884226919528
C         4.61916090262465    2.61543613210231   -1.50667581923726
C         4.85589502245228    1.43940426214027   -0.55285932444400
C         5.19032796010607    0.40453768140090   -1.67258263505303
N         1.11030268335171   -0.00104419893429   -0.67855280038807
H         0.11311600353479    2.72731186607229    1.00265914417889
H        -0.89821775062910    1.22162125385377    0.79277934696491
H        -0.44451886358783    2.10074679687766   -0.58136101970143
H         3.09074338097225    0.77307561711214   -1.13173919361515
H         2.67439817983880   -0.37758482395493    1.32335438587771
H         4.35112500346497   -0.91087414620531    0.87035095360495
H         1.24865592381495   -0.16231041330810   -3.18613893017038
H         1.76961223653048   -1.89531605640644   -3.04014382380729
H         3.32771090403608   -0.49430702413253   -4.38414301951712
H         4.10717357468477   -1.36341558159483   -2.99686196748108
H         2.86139945522210    2.09867993709626   -2.87459727637623
H         4.45736307145444    2.49335709426341   -3.61894113391680
H         3.87563147367183    3.29778761573708   -1.08466123151954
H         5.52814331645359    3.15171762420335   -1.80928291628860
H         5.64085576266492    1.63316531505417    0.18327375701817
H         5.16127963632135   -0.62945123561621   -1.31933658933584
H         6.21026123522322    0.65796157401906   -1.98456050848354
H         0.18663806327218    0.00591542903594   -1.11154983587620
