33
 energy: -44.345307591065 gnorm: 0.138264585785 xtb: 6.4.1 (79825abcba525fcdf90b791dcacef51065a7a4e7)
C        -0.06348178854073    1.95560281195192    0.51594373595798
C         1.28170912892458    1.36038763604574    0.18881377893597
N         2.35280720216236    2.09407060287704    0.16323112896671
C         3.45826421761373    1.26604570699160   -0.39342113170660
C         3.77738987152338    0.19989173862809    0.69350800526813
N         3.41564541135533   -1.12412502519635    0.04753468813651
C         2.32688030045293   -0.84557850923060   -0.60726674353536
C         2.26703341524440   -1.45072514755404   -2.01373058128263
C         3.61890315329433   -1.18575393741305   -2.79729349476301
N         4.29299538185071    0.14077014665318   -2.89598276740188
C         3.56942483847275    1.30870310916655   -3.41768624608221
C         3.86984577040244    2.54297954945138   -2.53626500788375
C         4.51326812843019    1.91754106487936   -1.29381006480714
C         5.21375410634726    0.63989126154241   -1.85372515090265
N         1.29461877836936    0.04456951168423   -0.27155641557089
H         0.15762201708846    2.98162383140274    0.78961304766610
H        -0.39942312539749    1.38662523676604    1.38499234358195
H        -0.78961121745170    1.98301972459712   -0.31609782467635
H         2.90024843160675    0.72869747578738   -1.12196128662107
H         3.17866877133590    0.30018356628409    1.60845360518462
H         4.83787367440900    0.06771767119865    0.93233639629353
H         1.28747432460796   -1.14088188463493   -2.39830496537690
H         2.11957838380645   -2.53343499102675   -1.94419794878734
H         3.30487496967342   -1.54946857781799   -3.78791485686250
H         4.39578232785776   -1.86753356726757   -2.42827325252369
H         2.51895256152379    0.99733513007300   -3.44659078115784
H         3.83569076770442    1.47361799291420   -4.46756359141798
H         2.94188778344197    3.02757120272168   -2.21908875201013
H         4.52012016037767    3.25175591480125   -3.06560158016077
H         5.19943727983896    2.55823960218528   -0.73320689371241
H         5.40631283775405   -0.15174484798527   -1.12503244334244
H         6.11191280247555    1.01251825908695   -2.35996405514782
H         0.37054119342041   -0.23143829734757   -0.60410944045038
