33
 energy: -44.334322704439 gnorm: 0.135941590591 xtb: 6.4.1 (79825abcba525fcdf90b791dcacef51065a7a4e7)
C        -0.03107611128842    1.87599199871148    0.46945360955413
C         1.24191152010676    1.17707031764011    0.06715436415500
N         2.37485885316925    1.48519606082732    0.62184806716647
C         3.46183836723593    0.75000061875135   -0.08205914848146
C         3.37157087411302   -0.71258890533110    0.44007499784043
N         2.81615704350184   -1.43148935171101   -0.77477420131645
C         1.86753705902865   -0.82931259968995   -1.42995801332744
C         2.15395494826858   -0.87800438753843   -2.93445744171582
C         3.68601411707424   -0.63502054029021   -3.25924342219891
N         4.30473004800537    0.58271908955772   -2.66082312745355
C         3.83713354317871    1.97569044053177   -2.68876199646674
C         4.49039372045141    2.62379063067623   -1.44625978207091
C         4.75449791269113    1.48129999576338   -0.45943455038656
C         5.28214583068852    0.50322837770340   -1.55558149160540
N         1.05896864877051    0.18701267971701   -0.89710829528731
H        -0.84653948152767    1.21830493963236    0.75046629547181
H        -0.33444361155705    2.43130000575733   -0.42017480869747
H         0.13109650522915    2.65718125539162    1.23349037558849
H         3.11911259353214    0.65487652571875   -1.08424972068133
H         2.73204485792530   -0.82881856943563    1.32503148756285
H         4.35121307408888   -1.15436690136657    0.65047517748401
H         1.53755516528382   -0.07867393122334   -3.36406010673506
H         1.82485623470123   -1.82633632067990   -3.37172047220911
H         3.74103833363943   -0.57560133498241   -4.35727548731776
H         4.12674813691813   -1.53306078247714   -2.80778145687519
H         2.77712468661432    2.21929536692967   -2.55342775477528
H         4.19567398244208    2.57205543424143   -3.53500927259592
H         3.81073030850395    3.39475711121239   -1.07182126241245
H         5.44352002971415    2.99754750562104   -1.84283759687812
H         5.55107941437287    1.66076902848420    0.26778440439506
H         5.31356871824637   -0.52489866535604   -1.18581528860968
H         6.20169714621559    1.04927217405425   -1.79657796926195
H         0.17839209182076    0.25434980149245   -1.40773716893414
