33
 energy: -44.337421457836 gnorm: 0.125246072852 xtb: 6.4.1 (79825abcba525fcdf90b791dcacef51065a7a4e7)
C        -0.05285592344909    1.72384430792354    0.71540997321801
C         1.23424473708263    1.15161084203003    0.17991537967296
N         2.39548137593922    1.61551361624527    0.52994384044487
C         3.48000134209024    0.88508055555012   -0.18266134958097
C         3.30151524902574   -0.46501611466952    0.56921770040300
N         2.80773419298073   -1.30647989685324   -0.59236738994821
C         1.89600810076980   -0.73592685112842   -1.32379564134358
C         2.11007447761923   -1.00204553604618   -2.81754295220686
C         3.54949591084680   -0.57476187724678   -3.32471841672977
N         4.42174094580063    0.45385567194582   -2.68836901604518
C         3.99200224206764    1.84015066504733   -2.91925227970928
C         4.43062395409610    2.59607938253664   -1.64380050480695
C         4.80632274780886    1.50481312091176   -0.63541155539463
C         5.37707546355332    0.38675085546354   -1.56317910487867
N         1.07097705638207    0.33137980474957   -0.93545425091195
H         0.05874764629041    1.88009171435101    1.78294559474674
H        -0.89118718653131    1.05237148019781    0.52005779877816
H        -0.26980514588087    2.73615516719627    0.33009380191781
H         3.09767398109711    0.64875702513453   -1.14644165102852
H         2.53347791586003   -0.41041766694283    1.35202579650640
H         4.21504877362042   -0.84793029740313    1.03608823915971
H         1.45728268023665   -0.40870254861228   -3.46964974836631
H         1.99487230275165   -2.07534983830336   -3.00080424324152
H         3.45204921360724   -0.28885934951064   -4.38348968443767
H         4.25409781762799   -1.41613172334396   -3.31154342199308
H         2.89617529370877    1.84507874565032   -2.93966074393461
H         4.38356610416037    2.24908194512510   -3.85722341406442
H         3.63274176156867    3.23076774740257   -1.24745399341703
H         5.30433228680757    3.20734964402681   -1.90533509398596
H         5.34595258219520    1.84183670301386    0.25386532864259
H         5.40842058528494   -0.61194919346183   -1.12003652738827
H         6.33262701607132    0.63319601960906   -2.04067649439968
H         0.12810887488547    0.43900337202758   -1.30976422899812
