33
 energy: -44.342066202734 gnorm: 0.123488172976 xtb: 6.4.1 (79825abcba525fcdf90b791dcacef51065a7a4e7)
C        -0.07787799201019    1.88176801764236    0.65509159803598
C         1.14774956214189    1.10652662305736    0.24561441098756
N         2.28641504844988    1.67996113703820    0.49221124752619
C         3.38400321248747    0.98793747001296   -0.23849089876377
C         3.51817225465022   -0.37266236713717    0.50360556030769
N         2.91955618146945   -1.35797331226171   -0.48228595660324
C         1.95049564971861   -0.84675425869783   -1.18324193067730
C         2.08089241727046   -1.03898781093351   -2.69782686780788
C         3.55059624084187   -0.71635550418827   -3.19543254041444
N         4.37546825543722    0.47809754827776   -2.85385665317444
C         3.99383471766901    1.88788536609977   -3.01710612238001
C         4.35275231784057    2.60993382073313   -1.69785684925204
C         4.74558791595352    1.54227918810411   -0.67089351539401
C         5.27676448362429    0.47924232839211   -1.68300942187594
N         1.04038280325662    0.12524440483456   -0.73878502863571
H        -0.20078053011378    2.69726762711457   -0.04943396045965
H         0.12255247356703    2.30769160415284    1.64010645313936
H        -1.01861768516714    1.30299717064440    0.67358272317054
H         3.03704891259941    0.74107000946615   -1.21295211283620
H         3.12920611286144   -0.39423934723698    1.53019730954810
H         4.56039443903185   -0.68281002143736    0.63289680155075
H         1.37529568378259   -0.34903397744862   -3.17692316324215
H         1.88036697760500   -2.06666902079717   -3.01798189441546
H         3.56398975992228   -0.95750137022671   -4.26963084328573
H         4.20637745125081   -1.50650314649596   -2.80792982128993
H         2.96688481906007    1.86497735382361   -3.39937123650421
H         4.64353778036213    2.34542445159195   -3.77134800431741
H         3.55664165377978    3.22643487554854   -1.27045758544256
H         5.24054672879010    3.20689347557461   -1.94459188650185
H         5.54623685535401    1.68883751338590    0.05923014557861
H         5.20054753515428   -0.51367645366127   -1.23238438570809
H         6.29025218715656    0.75905069312604   -1.99344089294594
H         0.09836851859004   -0.00555624783102   -1.10782631532074
