33
 energy: -44.346375524831 gnorm: 0.110246752253 xtb: 6.4.1 (79825abcba525fcdf90b791dcacef51065a7a4e7)
C        -0.03789731771839    1.89236290863198    0.23472932932032
C         1.24167716348236    1.10578318179224    0.11301161959217
N         2.36657819386918    1.58459969972201    0.55065148555073
C         3.47601156472649    0.81513328387287   -0.07752141506235
C         3.42300095979811   -0.61623544357600    0.52936724396557
N         2.92729636111291   -1.43525214578146   -0.64734408054265
C         1.99115895272373   -0.84775741667090   -1.33309857526261
C         2.05332913725051   -0.92009627891650   -2.86242083160089
C         3.50083400303482   -0.49118686013048   -3.34460205291948
N         4.23377151888600    0.61883455729868   -2.67046476529816
C         3.84011594922976    2.03208964237615   -2.58362238698834
C         4.52344248112719    2.55858778073136   -1.30047819251989
C         4.86798001525049    1.30051807186499   -0.49585753027239
C         5.32223401365309    0.40854359791067   -1.69360932462836
N         1.07648033106486    0.08855388147904   -0.82583834674950
H        -0.92333657781158    1.27672140256979    0.35084893174538
H        -0.04394604017395    2.52670691768968   -0.65375738304155
H         0.04208963399116    2.64514854421072    1.03923207742219
H         3.13682075130126    0.68283804162468   -1.07669259743127
H         2.74267900124835   -0.72771761759738    1.38399266274143
H         4.38878026057044   -1.00531619849645    0.86851526505252
H         1.34569093394711   -0.18650756400702   -3.26804637774556
H         1.69217092058987   -1.83728697477730   -3.33903842402230
H         3.33889980588904   -0.14682052104288   -4.37776315288121
H         4.05391364297348   -1.43533615885227   -3.42960594291421
H         2.75790595708277    2.14153803584113   -2.44901156903537
H         4.16942953983919    2.62031849526205   -3.44726367597786
H         3.87865360205165    3.23886283932529   -0.73655530922297
H         5.38896803019201    3.20153852022686   -1.50759601886833
H         5.63785527529866    1.56140525892088    0.23546222587703
H         5.34158585813916   -0.65643955642881   -1.44826051235727
H         6.30438590264375    0.76241162445857   -2.02823274039851
H         0.17077139243625    0.09275426758641   -1.29526872695858
