33
 energy: -44.344879759521 gnorm: 0.123157920898 xtb: 6.4.1 (79825abcba525fcdf90b791dcacef51065a7a4e7)
C        -0.08783765256321    1.78124944798978    0.68838776670105
C         1.23387586718268    1.35226120894806    0.10539878398316
N         2.29291633025947    2.10264290833729    0.06594220775139
C         3.44324152215972    1.34809375485681   -0.50408382761436
C         3.76950083874607    0.31575473994243    0.61295306411871
N         3.35222826222260   -1.02022462726532    0.02797128633100
C         2.26044251378932   -0.83540424809417   -0.65438333683079
C         2.23046640618560   -1.50157559869037   -2.03396362716027
C         3.63818640264596   -1.20157376672334   -2.69733055574368
N         4.21583683988040    0.16122633269675   -2.87871939439650
C         3.44463391858021    1.34606734196864   -3.28020922942725
C         4.03496279215279    2.53967045096274   -2.49444978532858
C         4.66467983546575    1.87054135156143   -1.26783550016418
C         5.23667084036286    0.55641325055360   -1.88627559314621
N         1.20479611890856    0.05663289378931   -0.40839720821371
H        -0.24194277321428    2.84584796939991    0.54916669507694
H        -0.17862791800437    1.54366850667891    1.75006095485955
H        -0.84723837810195    1.28685337764310    0.05657145060835
H         3.02855228601450    0.68693992032934   -1.22644380134912
H         3.31404235338023    0.53332152022718    1.58808029329251
H         4.83332264532854    0.20758528436368    0.84899841042608
H         1.53111100010066   -0.99775462469346   -2.71256716017983
H         2.06023775224126   -2.57245188412683   -1.88202758990300
H         3.59260504647920   -1.54983946632489   -3.74081800899301
H         4.44338633000680   -1.72644322232511   -2.16751380958223
H         2.37006218824373    1.28717753758122   -3.07259160281966
H         3.53697527949771    1.48378167803922   -4.36318879419566
H         3.21118755393888    3.23117427778510   -2.29506902985761
H         4.86623332556124    3.07785848779085   -2.96853929346622
H         5.46078866213538    2.41742548882356   -0.75526638078849
H         5.44478232230121   -0.15812684322334   -1.08572470744683
H         6.11285057976448    0.70747734499090   -2.52760737432415
H         0.26852183423587   -0.10497677385718   -0.77983223061490
