33
 energy: -44.344316270818 gnorm: 0.138825669412 xtb: 6.4.1 (79825abcba525fcdf90b791dcacef51065a7a4e7)
C        -0.03395893643145    1.85071674117133    0.59680257998843
C         1.29960913323091    1.35795989854725    0.09718212451072
N         2.32877739583711    2.14574015361462    0.01711223061443
C         3.50148348291473    1.31423010371233   -0.37131231994794
C         3.76574872452549    0.24217942403954    0.72450318164164
N         3.39152100652242   -1.03618343724795   -0.00137763663240
C         2.28844014507824   -0.85666249019558   -0.66677027991714
C         2.19200771761697   -1.48693133178328   -2.06010677772510
C         3.61021199107772   -1.19275735719257   -2.70345014974571
N         4.15225641823385    0.19648418314233   -2.70480495590949
C         3.36360140983973    1.28584759296995   -3.29734768966203
C         4.00678931034035    2.47846173545195   -2.55264956526688
C         4.59815018376919    1.91986406424036   -1.25375739697257
C         5.26556371317886    0.63550612271269   -1.83818736102198
N         1.27253217661401    0.09714661428264   -0.49704122714015
H         0.16957453149619    2.80308734433133    1.07436438159950
H        -0.39949770022283    1.13205967744570    1.33283992766438
H        -0.75713124757393    1.78447239743169   -0.23562897224308
H         3.08643518015003    0.73604167328494   -1.16145694987958
H         3.13030275869699    0.38190646048387    1.60900056749754
H         4.82565792158295    0.06365988122366    0.93392652947812
H         1.44003345540444   -0.93748953985103   -2.63983494190159
H         2.01100997835841   -2.56583340869377   -2.10536709506601
H         3.60606498588298   -1.67566871722743   -3.69290057281047
H         4.29473694983584   -1.80852480281802   -2.10612553835353
H         2.27849072199270    1.22515138439935   -3.15547360093383
H         3.48770047250983    1.38377418570664   -4.38148177107093
H         3.26954465453517    3.25547191048316   -2.33070052560855
H         4.79869060428090    2.99741897559391   -3.10852153515843
H         5.34936183525877    2.63226143168504   -0.90194825859844
H         5.54491586596256   -0.16246875949332   -1.14539726593014
H         6.13031669118486    0.85135753641288   -2.47648838872928
H         0.29648568873295   -0.18820428580691   -0.57827742655705
