33
 energy: -44.345184308443 gnorm: 0.103225274679 xtb: 6.4.1 (79825abcba525fcdf90b791dcacef51065a7a4e7)
C        -0.17582211667586    1.68846164207701    0.56289765275030
C         1.15770123401442    1.17842223877595    0.08080953941490
N         2.30889650907783    1.54756158278155    0.55481562977146
C         3.45459144314765    0.79555651825354   -0.02775935239819
C         3.35868276318411   -0.68321668791716    0.44549711332473
N         2.72123196589093   -1.41960670810818   -0.71749349112750
C         1.92136987998647   -0.69208968693187   -1.44047491106685
C         2.04953273962275   -0.63226034753618   -2.96622696556665
C         3.61859977812554   -0.59826646251855   -3.18669333495755
N         4.44961991239053    0.54589477658228   -2.71329430066881
C         4.01469897589601    1.94915775942496   -2.75193405564614
C         4.59116856644109    2.57955289785763   -1.46318301741132
C         4.78003301244792    1.40250024713148   -0.49999188140941
C         5.37839077675483    0.43561809733587   -1.56942228746183
N         1.01245051551591    0.26482187103291   -0.96212922026786
H        -0.58410406108638    1.05171085383611    1.34030050027616
H        -0.94991883049952    1.60058695778158   -0.20188326128712
H        -0.08565417442187    2.71117749421776    0.97061178367400
H         3.08024517245052    0.64231113059780   -1.01126136330901
H         2.76135025923243   -0.71991429830302    1.36609365907257
H         4.32733695127969   -1.15859608236014    0.63220103413839
H         1.66796411682355    0.26025085084216   -3.47736828556931
H         1.65702500901832   -1.56631405993442   -3.38134106611074
H         3.85582944341725   -0.53530253471816   -4.26000147051980
H         4.07307777868600   -1.54517834062738   -2.86834086683594
H         2.92102922509431    2.01393269948067   -2.72081855219455
H         4.39681051863643    2.40939434009732   -3.66981746918107
H         3.88350877685177    3.25660980859158   -0.97599986083328
H         5.51187705565244    3.13909117051394   -1.67444284865536
H         5.43714418798970    1.69050354187173    0.32514908477183
H         5.38217038919928   -0.58522187935615   -1.17874197490458
H         6.37110742854149    0.75679790071235   -1.90583709847791
H         0.26741416705707    0.48848850043245   -1.62211806161938
