33
 energy: -44.343549951787 gnorm: 0.116108855173 xtb: 6.4.1 (79825abcba525fcdf90b791dcacef51065a7a4e7)
C        -0.00383383934197    1.88559273441264    0.68689096438656
C         1.25960716361675    1.25453303892891    0.16123500298674
N         2.28352147711951    2.04325648497381    0.03589136703719
C         3.46567110192660    1.25900105349389   -0.41686446029186
C         3.73333888366846    0.17908525493092    0.67036882838995
N         3.28403017916922   -1.08320166287896   -0.04090775241976
C         2.20505550002672   -0.87132505143854   -0.73566272146312
C         2.21719375676144   -1.42634045663215   -2.16385568665256
C         3.64243573965895   -1.13584832872530   -2.79316639050647
N         4.20655744515716    0.24077401035138   -2.89555623081320
C         3.46386080692275    1.45362054763024   -3.26596307166429
C         4.11614924484963    2.57342074416498   -2.42265898797876
C         4.65037583954028    1.87965690652873   -1.16482211799287
C         5.20768415173475    0.60423285136203   -1.87141637675655
N         1.14767614127477   -0.05439345378283   -0.30531355917980
H        -0.83737747347354    1.19305086172717    0.64115618046752
H        -0.08845156812566    2.76842475820688    0.05027098304789
H         0.00663846163545    2.23552789921387    1.73462399300918
H         2.96277631613076    0.73638005447835   -1.19459167099903
H         3.20611306650864    0.37708548908115    1.61296083580563
H         4.79512034386500    0.08661947460909    0.92177503514668
H         1.30738975139434   -1.19239416575561   -2.73039085592065
H         2.18444307336204   -2.52043038597072   -2.13678188997554
H         3.73097644382764   -1.45229302170848   -3.84400225472020
H         4.42589857276747   -1.67480583630560   -2.24521434718848
H         2.38481633946766    1.32235787474280   -3.12556848980599
H         3.62363169279555    1.70831964576634   -4.31949927686173
H         3.36923649519591    3.33928498754468   -2.19438464513625
H         4.85451814183178    3.01256060995736   -3.10631494936320
H         5.44110529463294    2.45202886589861   -0.67213977332127
H         5.32494587084247   -0.31232750227323   -1.28752729237442
H         6.11657015659442    0.74567698859043   -2.46785374502369
H         0.23633019026829   -0.33946264915789   -0.66430562796530
