33
 energy: -44.351128627447 gnorm: 0.125266314157 xtb: 6.4.1 (79825abcba525fcdf90b791dcacef51065a7a4e7)
C        -0.08817085212123    1.89676098233621    0.55022978889949
C         1.25212728386851    1.34098918711731    0.14334855367754
N         2.27386399880372    2.14239036483275    0.14589532777121
C         3.41870753463198    1.35373478046265   -0.38784414421517
C         3.81227341935666    0.29550886348375    0.68229800527702
N         3.37675720965850   -1.01951833616706    0.06408278689551
C         2.25933831577108   -0.89581745869005   -0.59000868672436
C         2.31017211378269   -1.54279675278560   -1.97808589658212
C         3.64285157016673   -1.18182643625114   -2.75615932502374
N         4.18179797512415    0.19311983810884   -2.96319932506499
C         3.48335526620878    1.40372797702455   -3.41751415596523
C         4.03255964992253    2.49962457205788   -2.47518742658558
C         4.61123901928179    1.83232303296363   -1.22271037631796
C         5.15557613523066    0.53937617731392   -1.90722484636273
N         1.23694679002058    0.03198451991630   -0.33598540197618
H         0.01435173098016    2.87616863198593    1.00492824777207
H        -0.47191928937561    1.24191728491684    1.33492999523508
H        -0.78032399367205    1.84504262410804   -0.30916420517250
H         3.02332493439884    0.76499222265901   -1.18027729155911
H         3.24636749891678    0.47344962191693    1.60627767583367
H         4.89294598991095    0.19952540766701    0.83085388629925
H         1.40262979367245   -1.27962339684690   -2.53534978062704
H         2.33883058558200   -2.63690404689003   -1.94732398878719
H         3.36603885712901   -1.51994125400730   -3.76674619226437
H         4.51440101140902   -1.79433749678467   -2.49201462550423
H         2.39247836820612    1.40761434129969   -3.31144822810254
H         3.71045895642265    1.66563406414206   -4.45682451280067
H         3.20554417739697    3.19955947787899   -2.32461382461889
H         4.85121456509679    3.07375347249555   -2.92861665164127
H         5.33146980708025    2.46111694054767   -0.69215927819084
H         5.33987844701771   -0.28748724969965   -1.21650841557084
H         6.07773508545601    0.71975008438544   -2.47194236466129
H         0.27518264160722   -0.28797890472366   -0.45141650282667
