33
 energy: -44.343689800972 gnorm: 0.127148777596 xtb: 6.4.1 (79825abcba525fcdf90b791dcacef51065a7a4e7)
C         0.00103771753582    2.00937539813986    0.43363616748606
C         1.27608536775840    1.30332179882183    0.05078432600635
N         2.32996988666209    2.06083729235866    0.09194192010469
C         3.50160296425846    1.27155066849897   -0.37904081004987
C         3.81497703016042    0.23238424332096    0.73535150920196
N         3.28691420716113   -1.07762788957752    0.18201723183031
C         2.30289321363346   -0.85769455383417   -0.63962414355242
C         2.35721690104267   -1.54415266768586   -2.00847359003417
C         3.60847806050771   -1.19207049639871   -2.91517972132842
N         4.19957285208219    0.17272612063160   -2.80681375641647
C         3.33969184939918    1.28942069629996   -3.22321997378693
C         3.91242375399147    2.52149720615388   -2.48527681423272
C         4.58559370475937    1.91935088105665   -1.24708380224822
C         5.26549227968388    0.68708683142848   -1.92224138623279
N         1.20619500704588   -0.02270775174757   -0.37376918126009
H         0.22648624951290    2.74114051975600    1.20187680882204
H        -0.59280650406937    1.24377605992816    0.93667119786873
H        -0.33815388162874    2.54488390145369   -0.47106737670683
H         3.08191383335175    0.65103921250546   -1.13384016048294
H         3.26937332854821    0.59256032564925    1.61753099403225
H         4.82424146880823    0.01863521533195    1.10254562484941
H         1.36194199835858   -1.38858299167920   -2.44282627332243
H         2.40792461319074   -2.59922638266894   -1.72022619126706
H         3.22340467299445   -1.35823300968133   -3.93318818041138
H         4.43859029662876   -1.88796470778286   -2.73858535502786
H         2.28333891107790    1.14032069090040   -2.97189319302392
H         3.47346738248748    1.39755632411268   -4.30523092443461
H         3.12550329311804    3.20866575878305   -2.16109871344685
H         4.68789864459971    3.02235372279792   -3.07958260191110
H         5.23423320311211    2.55223031783769   -0.63525943804870
H         5.59105815142290   -0.03432699522682   -1.16836566311150
H         6.09216742873408    0.97194377631706   -2.58351475345147
H         0.27701073102005   -0.23819940454878   -0.73553033146620
