33
 energy: -44.345494043082 gnorm: 0.110782257081 xtb: 6.4.1 (79825abcba525fcdf90b791dcacef51065a7a4e7)
C        -0.07192398438495    1.76086562869257    0.68994667781253
C         1.13526565152480    1.06970865544664    0.11043920617412
N         2.27248267711784    1.50501173498045    0.56148785706237
C         3.40670569802410    0.82680926487679   -0.12488062983807
C         3.28154829863806   -0.62335898712652    0.42401650404846
N         2.76654953530767   -1.35230377406239   -0.80259537924261
C         1.84195694044649   -0.73714097686199   -1.47969639025243
C         2.08534551879163   -0.81245117174631   -2.99066129988007
C         3.58662221891388   -0.48753029257406   -3.38095225365219
N         4.43253202757785    0.56260914666315   -2.74420287473728
C         4.17880829956871    2.00976321861271   -2.71006203664825
C         4.59903734048477    2.60570232760108   -1.34666239315920
C         4.79963713371659    1.34967717678385   -0.49166505516138
C         5.28196387224934    0.31887876146681   -1.56002363440959
N         0.95699012637747    0.23860599728786   -0.99453630262369
H         0.02952056676147    2.81559419722192    0.45808991708339
H        -0.02066100205598    1.78538972276038    1.78017977741937
H        -1.07897531995216    1.41404796139165    0.39690419560647
H         2.99709422314120    0.78837168131107   -1.10551128394465
H         2.60024847679440   -0.67121816551607    1.28377862060296
H         4.20874206947253   -1.13132041212720    0.70936150918374
H         1.49710505388385   -0.04346877499732   -3.50648640105342
H         1.75319409182515   -1.78628859982497   -3.36503337862049
H         3.55988168218765   -0.32131959339600   -4.46902010756932
H         4.21809762600610   -1.33582180764675   -3.08738630464411
H         3.11526624837055    2.16980349889694   -2.92111393250525
H         4.88651969500488    2.43834149042034   -3.42825570535890
H         3.78310614011623    3.11315429143154   -0.82389604872972
H         5.48863631665398    3.24913484017418   -1.34154539033255
H         5.49931421822116    1.58648770661683    0.31454296450412
H         5.40641868998600   -0.73192370173299   -1.28600752720717
H         6.28970552161617    0.61845109866717   -1.87071790000113
H         0.03586620610450    0.32742685498134   -1.42387621799418
