33
 energy: -44.321839751863 gnorm: 0.129921208011 xtb: 6.4.1 (79825abcba525fcdf90b791dcacef51065a7a4e7)
C        -0.02846984008349    1.89789398265478   -0.27800689399485
C         1.35364202734408    1.34037610888717   -0.05490529474384
N         2.40139580496741    2.10097799707559    0.04455848162329
C         3.56722890453648    1.22862855119420   -0.26747006151330
C         3.92132406543970    0.27770067960475    0.91163689695974
N         3.65873134306639   -1.00656479416486    0.14817882879687
C         2.51766744243319   -0.89823583793408   -0.46663866572401
C         2.34715560603436   -1.63379185091653   -1.79998321670128
C         3.21345051370949   -0.99406468557940   -2.96274486402243
N         3.87962282261054    0.33912860691265   -2.91159663329739
C         3.25316765624657    1.65573958281649   -3.09567734589585
C         4.06855903735945    2.57965756613300   -2.16181069530640
C         4.75009029595255    1.66437844211286   -1.13875684111765
C         5.06379514876479    0.42321874039607   -2.03188974761258
N         1.43897297311301   -0.04493923498139   -0.18569039460317
H        -0.16065014600978    2.94783851048896   -0.04000319392286
H        -0.81442926865830    1.38147961873044    0.27644916572969
H        -0.38015023876819    1.59918629327520   -1.28170177354060
H         3.05198538713073    0.61403557007839   -0.96582175105921
H         3.23456906477736    0.45186802258024    1.75049574205462
H         4.96286955358353    0.20463832612102    1.24175773469496
H         1.28508106251476   -1.61119799284424   -2.07370478655023
H         2.54750518192137   -2.70237285348197   -1.67024092425368
H         2.58678698069287   -1.04965568803257   -3.86631288778853
H         3.94568563785720   -1.76792166887368   -3.22640704363747
H         2.17314585197600    1.70214703789962   -2.91491025453988
H         3.30030248893347    2.07305867316576   -4.10758642546716
H         3.41676931999796    3.24513320103907   -1.58835780496184
H         4.83922233921885    3.21008203057140   -2.62447795743934
H         5.53819213924982    2.11244919174494   -0.52742491409188
H         5.20315539039093   -0.54666300196198   -1.54746453631390
H         5.89968288187968    0.74753275631195   -2.66270657354653
H         0.60450425388208   -0.63133472658529   -0.16347564362386
