33
 energy: -44.348988778606 gnorm: 0.131798657693 xtb: 6.4.1 (79825abcba525fcdf90b791dcacef51065a7a4e7)
C        -0.00318012646287    1.92715193198913    0.43675998682379
C         1.22558860488621    1.11550676074374    0.11708319990628
N         2.33528929601167    1.56469543977981    0.62006446943104
C         3.38683471545423    0.78044735748819   -0.08472582417323
C         3.31037391721063   -0.69110042163101    0.41391362066859
N         2.86561754014615   -1.47577769453173   -0.80577252885611
C         1.92412579965326   -0.80741156532030   -1.40464026385548
C         2.09770007607541   -0.76833558580822   -2.92656984804501
C         3.58170764073978   -0.45703201405480   -3.38759478696893
N         4.41619417708443    0.63065182771094   -2.80075398860431
C         4.01475293412901    2.03324506963260   -2.62362867716735
C         4.58581289019036    2.59171577325243   -1.29977239169051
C         4.76993633412754    1.32187417622632   -0.46164305069455
C         5.26326404303736    0.39159039979103   -1.61393398253878
N         1.03377130753560    0.11818822463369   -0.83792809450338
H         0.26773056089216    2.90993167511112    0.80723574837943
H        -0.57193884096377    1.46729031496843    1.24724031507708
H        -0.61017654537534    1.96685062059700   -0.48535072332369
H         3.00435850830312    0.71541241066325   -1.07486616832348
H         2.67821361114809   -0.80258839341533    1.30475290632950
H         4.27826931177980   -1.10153490662305    0.72027438259567
H         1.40197035361387    0.00761585492708   -3.26905464088851
H         1.73719774846420   -1.68253884407263   -3.40938331500018
H         3.60757952850836   -0.27966071551690   -4.47392014552169
H         4.06162212839035   -1.43240124840131   -3.23634137489753
H         2.91954497505422    1.99090242359002   -2.62565882288441
H         4.35484903246301    2.56989346357178   -3.51619802939963
H         3.75169957069331    3.18104038454570   -0.90799777974871
H         5.48655794310743    3.21206060434230   -1.39594184964964
H         5.46936268024441    1.44480291504578    0.36979542875535
H         5.11222194888043   -0.64862007725473   -1.31408717790040
H         6.33875581174212    0.51093493558692   -1.78969542320069
H         0.10684150004152    0.19161863035594   -1.25757117491913
