33
 energy: -44.347733179261 gnorm: 0.121125678244 xtb: 6.4.1 (79825abcba525fcdf90b791dcacef51065a7a4e7)
C         0.04263643958709    2.06540838754029    0.28815292840440
C         1.24637567783857    1.17247057262732    0.13160381576134
N         2.39142845960163    1.51210113469767    0.64121293672261
C         3.46580535687365    0.73847053935768   -0.04049972894848
C         3.42882108713465   -0.73963337408804    0.44300972465301
N         2.84508417579830   -1.51726747740062   -0.72133446003096
C         1.98937068946714   -0.77235531290555   -1.35743417071841
C         2.10253774463452   -0.86348737579203   -2.88282356150491
C         3.61194527084764   -0.54582266770158   -3.24684338544959
N         4.41556698908047    0.60899281412430   -2.75247571396137
C         3.81528914036471    1.94855009411017   -2.68141898560171
C         4.26979067652708    2.61302685955793   -1.36138358752679
C         4.74842963795292    1.44416347193075   -0.49332653649173
C         5.30986443498193    0.47835941201173   -1.58355037364975
N         1.08931121903364    0.15359824270947   -0.80686016428088
H        -0.84217321616368    1.43834544078302    0.30827375281563
H        -0.02699067304522    2.80330527072615   -0.51340667461129
H         0.02063630596196    2.64186997923969    1.23023404014131
H         3.06335129663669    0.62573295978217   -1.01836294192396
H         2.80371896001826   -0.91240981027851    1.32903821592453
H         4.41514625171710   -1.21304500030120    0.48968926698564
H         1.39210765277769   -0.18367638264347   -3.36922094477005
H         2.02040753205334   -1.91229961065788   -3.18628015433805
H         3.66730525348341   -0.52962643994037   -4.34634585356808
H         4.29109648886845   -1.38705868936368   -3.05812074249220
H         2.73603468425282    1.77174879458644   -2.75372815394413
H         4.20804192365214    2.44769458082402   -3.57413223182251
H         3.44807477031745    3.12895250607583   -0.85627016338843
H         5.10030872606416    3.26648921319721   -1.65911609926200
H         5.44956053535382    1.67525796137292    0.31327710598192
H         5.20220761299185   -0.56584258054207   -1.27889997219092
H         6.30559685642139    0.84160288912567   -1.86353050082171
H         0.20175268022807    0.26050078747700   -1.29828960536871
