33
 energy: -44.336004477495 gnorm: 0.140491300745 xtb: 6.4.1 (79825abcba525fcdf90b791dcacef51065a7a4e7)
C        -0.13517403736449    1.69873040730149    0.58837607280121
C         1.19256898464745    1.13144544262105    0.15695985629980
N         2.26641811665934    1.73725264125282    0.56444227181603
C         3.34849295183123    0.93528327994735   -0.07075956389170
C         3.24570640318973   -0.49330684652500    0.53628704786882
N         2.99439575014723   -1.36106476385856   -0.68231876221252
C         2.07604142396064   -0.71928608900564   -1.34300628077408
C         2.13168014751834   -0.86568019776267   -2.86727584391773
C         3.55403855570290   -0.47250826491132   -3.44524188786528
N         4.44929283489805    0.51535145174992   -2.77706601629886
C         4.25638332678838    1.96876609903177   -2.87790267344648
C         4.57745604861023    2.59926326594496   -1.50313720579356
C         4.72498897493982    1.40775610111529   -0.55055932354677
C         5.19207862478611    0.27863723374203   -1.52189467435884
N         1.09388483316955    0.12708625639324   -0.80481389882142
H        -0.85815603953510    0.89027884632080    0.57409283026100
H        -0.35884834412677    2.52908447802546   -0.08417092491957
H         0.00748546752263    2.06865239173296    1.61945065397735
H         2.95954778916721    0.84817389017813   -1.05667493079082
H         2.31689507137828   -0.61811888407777    1.10846038077225
H         4.05360625317493   -0.95685541281310    1.11209555369814
H         1.38448101303572   -0.17246444553069   -3.27296252960361
H         1.88296170625466   -1.88032201124200   -3.19511649873501
H         3.31531657684049   -0.15383414410708   -4.47173657290200
H         4.09205113533456   -1.41500932103832   -3.28161157655781
H         3.18473975702739    2.13355702181134   -3.03821956190458
H         4.72522682854641    2.46100371550304   -3.73710276589634
H         3.79674230430203    3.22206311912898   -1.05688361919951
H         5.46526208915771    3.23333951887433   -1.62628615167257
H         5.35838345410093    1.48673657521593    0.33723127767386
H         5.12703810151022   -0.79341606830479   -1.31884024505632
H         6.19247176079596    0.53803865210947   -1.88760251992130
H         0.19122761623366    0.07233171504674   -1.27694003754593
