33
 energy: -44.344727766806 gnorm: 0.117790282216 xtb: 6.4.1 (79825abcba525fcdf90b791dcacef51065a7a4e7)
C        -0.19044474997493    1.55618366127506    0.68467021235004
C         1.15743701049181    1.21009597325181    0.10650779167897
N         2.27556430556173    1.75323691460989    0.48198816586123
C         3.35418475315509    0.92412728503267   -0.12355070548554
C         3.17717500635031   -0.48352945580441    0.51450137609040
N         2.83971658257942   -1.34404065798052   -0.68832996879950
C         1.95199239998331   -0.73181484389961   -1.41557674234419
C         2.08688495921039   -0.79789695482273   -2.94049043613803
C         3.60950364761024   -0.53317401643498   -3.29161216251777
N         4.52917145727772    0.53278379456610   -2.79993024039902
C         4.09183146605341    1.93575284866331   -2.78551435258832
C         4.70594295873874    2.55627783249182   -1.50942255151327
C         4.75990057940194    1.37498655498342   -0.53448696223862
C         5.29168497711445    0.31805495651862   -1.55265957626266
N         1.08990665532007    0.24973811354213   -0.90177646007352
H        -0.47906729362847    0.81462497158175    1.42175138034753
H        -1.00962630417974    1.48051526924503   -0.03300200708055
H        -0.14169300498533    2.58055789017045    1.09526673107532
H         3.01991498014498    0.80357439164200   -1.12586114313638
H         2.45960763251966   -0.47467857726226    1.34556670382596
H         4.05491775022485   -0.99112700118693    0.92808000691540
H         1.50249627161589    0.00849957784411   -3.40054565988910
H         1.88110065463417   -1.82096541693852   -3.27188464300417
H         3.59843422409921   -0.30550434511706   -4.36877357706781
H         4.10996381429049   -1.50914464768644   -3.25209506476397
H         3.02207332970958    2.16670919398252   -2.84513136434225
H         4.40783781169734    2.44566346535592   -3.70228480150032
H         4.07416909909627    3.34995874195902   -1.10019367162853
H         5.66590115850156    3.03933331047274   -1.73426823911134
H         5.45151655683790    1.52730531508227    0.29861865344792
H         5.46332706495669   -0.66644651837533   -1.10987803731969
H         6.32198136950039    0.63422331330322   -1.75351938976483
H         0.18236453473247    0.22451223202360   -1.36698841464892
