33
 energy: -44.340825022641 gnorm: 0.111469006113 xtb: 6.4.1 (79825abcba525fcdf90b791dcacef51065a7a4e7)
C        -0.06352624978196    1.90316722835076    0.56247042069569
C         1.24572095987531    1.27801216468900    0.15517864703978
N         2.26029093358807    2.08508152550812    0.08113109682450
C         3.44924343130061    1.31570282384793   -0.37927146878196
C         3.78405543180892    0.31017203675707    0.75947747366757
N         3.32841398600774   -0.96403416590281    0.07394821389891
C         2.25363947995176   -0.84752652898662   -0.64927252484612
C         2.26610170404339   -1.50904338201882   -2.03135961242392
C         3.54734962325214   -1.16504005306120   -2.89842235978928
N         4.26189050673345    0.14317003301615   -2.85571731445410
C         3.44554557505597    1.28445634444613   -3.29257284170421
C         4.00616362749104    2.46675622520094   -2.46888063403230
C         4.62268985784343    1.84158126971855   -1.21273112552782
C         5.29807283158908    0.62411848139745   -1.91857580336257
N         1.16212952625197   -0.00794779884349   -0.37661465944412
H         0.10507917911227    2.96911617221077    0.45372313688133
H        -0.23516794469176    1.71084713705862    1.62331425891303
H        -0.91367753143544    1.57589762356981   -0.06238651727118
H         3.16912530944808    0.65684429465486   -1.16561411933990
H         3.35363646994921    0.60364936373037    1.72604946669619
H         4.84058185468684    0.25816436960728    1.04264171601284
H         1.38160292990110   -1.33447089675762   -2.65635773956317
H         2.25079590992195   -2.59413949386231   -1.88585866461290
H         3.25942855204662   -1.07904109288430   -3.95763827247084
H         4.35950923067942   -1.89567596387811   -2.79302512582786
H         2.38392812060725    1.19821290828365   -3.03410052165435
H         3.51464014897635    1.49265885657498   -4.36598541533745
H         3.29357716771122    3.27762625296766   -2.29211467664936
H         4.88843434467931    2.88631203970560   -2.96986888244433
H         5.33937695303777    2.45565532306846   -0.66057961675845
H         5.58931588028074   -0.09879226430243   -1.15219653158118
H         6.16184311585981    0.94742301529851   -2.51119103746582
H         0.29193138738142   -0.46905807675593   -0.64274188038077
