33
 energy: -44.346004118811 gnorm: 0.111872840047 xtb: 6.4.1 (79825abcba525fcdf90b791dcacef51065a7a4e7)
C        -0.12104707619261    1.97583037840974    0.32158840629976
C         1.23115849628936    1.32752382356839    0.17302049444898
N         2.30760425734282    2.05342429421853    0.19602650091430
C         3.49590884543864    1.30248871999135   -0.29545099827838
C         3.92777476954559    0.24439249314416    0.75994684238260
N         3.38310064289994   -0.99930329319811    0.08340280226759
C         2.31190650300475   -0.80737441229416   -0.62896574879199
C         2.25578266841080   -1.51859712760424   -1.98503985173172
C         3.50870430912309   -1.13743889184390   -2.87758571318252
N         4.25180501960131    0.15216274657528   -2.96997068308603
C         3.47291144254363    1.35321553711480   -3.30252630068570
C         3.92755436998445    2.50746505772634   -2.37970328625895
C         4.62044274343111    1.84412236926070   -1.18440328658279
C         5.19496026338143    0.59410619922829   -1.92194224148742
N         1.22540282658410    0.00538441678193   -0.26901906459499
H         0.01703740486463    3.04980062786465    0.38500365922769
H        -0.57875290140235    1.55041160296434    1.21677653718204
H        -0.62711884050557    1.63622781336915   -0.59975315425131
H         3.05761340650496    0.72146374917753   -1.07082354353590
H         3.49874357558240    0.45065443294924    1.74941088676619
H         5.01717689464714    0.13777688261409    0.79110764544633
H         1.31529772054756   -1.36656002924665   -2.52892319265925
H         2.35648086647329   -2.58954104596247   -1.78064471550033
H         3.15256226550851   -1.31030508727115   -3.90496725967423
H         4.22028690958861   -1.95220931763737   -2.69227514735587
H         2.39632254236458    1.17031440447662   -3.39623332328436
H         3.88246832269155    1.65785125481582   -4.27195765269603
H         3.10428692460238    3.13799350959397   -2.03156472779106
H         4.55586459558707    3.15005533298052   -3.01035526759385
H         5.35552789979866    2.46380295245341   -0.66359198116085
H         5.39979014718412   -0.25940487818799   -1.27054128065310
H         6.19010413027581    0.79543844003569   -2.33542955385695
H         0.26392651611253   -0.27698612041585   -0.46012475863311
