33
 energy: -44.338891609727 gnorm: 0.130806846867 xtb: 6.4.1 (79825abcba525fcdf90b791dcacef51065a7a4e7)
C        -0.01213034238975    1.75148443001229    0.68072823841864
C         1.22874188222862    1.25841225588807   -0.01780570666882
N         2.36614879058515    1.67181808163675    0.45293561566497
C         3.41677546353420    0.76640297275897   -0.08921680380070
C         3.36943559725078   -0.68310156678991    0.47348731728424
N         2.83274229320680   -1.44910529901673   -0.72081563232151
C         1.92810194347559   -0.76480940952017   -1.35731190716479
C         2.06066758269720   -0.80964003627652   -2.88320220177743
C         3.53964849919146   -0.48141832158390   -3.34862493719993
N         4.43856871033086    0.51264353825978   -2.69472164560829
C         4.13184663171713    1.93873537002646   -2.87355090246020
C         4.37514548150464    2.58843105064416   -1.49177825278077
C         4.71563904538533    1.46270089195594   -0.50910045513308
C         5.27177249354084    0.37619336537073   -1.48213257575969
N         1.01652638545982    0.19956585416460   -0.89944825660801
H        -0.88271494592018    1.32420942127286    0.19490993117060
H        -0.13577604493456    2.83614739852176    0.68817971935443
H         0.14371604663404    1.53581417156712    1.75287890059312
H         3.05433008147543    0.55942053894188   -1.06732063834892
H         2.65697697560871   -0.74493501310724    1.30669208739347
H         4.27186394868929   -1.20516296447512    0.80846468767221
H         1.40573914766899   -0.09172465188908   -3.39222337959068
H         1.97141477826821   -1.84549322136918   -3.22653948951661
H         3.50583194504909   -0.22986895249781   -4.41998485545821
H         4.05740460752856   -1.43302439449928   -3.17279789352433
H         3.11948136640060    2.20266289129337   -3.20025615787578
H         4.81937190634028    2.30647568118720   -3.64323457967633
H         3.58676861877106    3.28390680392460   -1.18960070740724
H         5.20975728418317    3.30023798396529   -1.44517402955845
H         5.34100342244449    1.79359873311675    0.32458092655664
H         5.19193691187081   -0.60682990307753   -1.01090949950539
H         6.26393375199164    0.72774987104916   -1.78846868032259
H         0.19688628584794    0.27046209952315   -1.50265223105280
