33
 energy: -44.350215026602 gnorm: 0.122142023040 xtb: 6.4.1 (79825abcba525fcdf90b791dcacef51065a7a4e7)
C        -0.02607639553867    1.76390907177228    0.67265076432579
C         1.32671157103259    1.29000327893708    0.20766502235140
N         2.25636291497136    2.17156614219637   -0.00397509999132
C         3.41376119110070    1.32700388280596   -0.40976568087366
C         3.69980258179244    0.26990324752874    0.69506868531670
N         3.38181019338242   -1.04914556616057    0.01672362011820
C         2.31733894334942   -0.83340875604206   -0.69890275777834
C         2.18133711601036   -1.41205744326546   -2.11120364699181
C         3.56738492300324   -1.16727135955935   -2.83968399101850
N         4.26398030027120    0.14921634601651   -2.91331171298747
C         3.49772612819098    1.33871366760967   -3.31048537157594
C         4.03327268635525    2.51474111173476   -2.46151905979702
C         4.61035108987974    1.87824449846353   -1.19238057596344
C         5.20680000109862    0.60538404625821   -1.87109221359132
N         1.25505380434733    0.02372836973195   -0.37103846424374
H        -0.68256834574027    1.80326920748604   -0.18988619919388
H         0.19018902489405    2.73655908373492    1.11876596292202
H        -0.40611519579347    1.04170686764923    1.41716623401344
H         2.99133993879572    0.76664265143844   -1.20879701187642
H         3.13223710420526    0.40422514043340    1.62537933667822
H         4.77484959024771    0.23121634973859    0.89979320699552
H         1.33834368099564   -0.89857579609681   -2.58988409785546
H         1.99715910022173   -2.49118991566409   -2.09145690791184
H         3.47787268857552   -1.39064174253646   -3.91407961084548
H         4.18905712709412   -1.94353680173768   -2.37548975981209
H         2.43004208541509    1.22722430544746   -3.08935554679316
H         3.70138346755277    1.51575445306276   -4.37233147647500
H         3.25068513672084    3.22634238283608   -2.18274275259695
H         4.86429029804816    2.99464572347231   -2.99492248873389
H         5.42871869168603    2.43586305149120   -0.72877012882560
H         5.49791429132312   -0.15055655066902   -1.13722169671726
H         6.13803279926985    0.91650108025082   -2.35876978418874
H         0.29461038637240   -0.21974170600250   -0.61385931213644
