33
 energy: -44.341167636103 gnorm: 0.139294220280 xtb: 6.4.1 (79825abcba525fcdf90b791dcacef51065a7a4e7)
C        -0.05062352562102    1.93731941937149    0.58396688226389
C         1.28763754047549    1.35788361298076    0.20430235068287
N         2.30573161970642    2.15802690655447    0.10708411674292
C         3.41701849225775    1.33009950766819   -0.43798458041398
C         3.78011574126998    0.32247814795348    0.69019980088988
N         3.47237168586059   -0.96295853908446   -0.05418389132627
C         2.30247545284229   -0.83072164742974   -0.60701182827939
C         2.26526736705623   -1.57696111991576   -1.94479611637995
C         3.54463430242576   -1.20757321991248   -2.80415935244538
N         4.27349264609784    0.09008431112852   -2.89719956058329
C         3.61558339198639    1.31068221276935   -3.38412093175015
C         3.90568340232351    2.53698637756231   -2.48823336023829
C         4.57577767919179    1.87943052536748   -1.27684825397935
C         5.18512934514017    0.55331476719710   -1.83063708209822
N         1.26123448744859    0.06421860249450   -0.31456023927743
H         0.01403975991459    2.75201230209370    1.29712539811592
H        -0.67056076913454    1.20593495831254    1.10607043385804
H        -0.44509685938886    2.37719860517789   -0.34941722316946
H         2.94264319157869    0.80843975611988   -1.23405911865870
H         3.15412697317374    0.22594966142456    1.58712296855706
H         4.84596860108352    0.13901518688881    0.86176291478710
H         1.43479392521054   -1.29032826216620   -2.60175256307129
H         2.32123840221581   -2.66513684199774   -1.83718939297009
H         3.20758417920782   -1.35444783881025   -3.84197329429144
H         4.38917865732953   -1.85773582108752   -2.54229283097555
H         2.53969986820095    1.10151288873598   -3.38469554070165
H         3.84298410727745    1.51440561043278   -4.43631986383260
H         2.99053900968774    3.00303214010246   -2.11160627721776
H         4.48253309367383    3.32056169684661   -2.99683150765250
H         5.25318556129427    2.53292379302208   -0.72037386657642
H         5.25782188483437   -0.28646039799642   -1.13475410242058
H         6.13659004925702    0.72781132448616   -2.34647739476506
H         0.36496131334463   -0.35151383800328   -0.56863134801345
