33
 energy: -44.337199567245 gnorm: 0.125245053578 xtb: 6.4.1 (79825abcba525fcdf90b791dcacef51065a7a4e7)
C        -0.06015907856135    1.85630104633567    0.61482857183341
C         1.23863295041882    1.37503971622720    0.02122895763312
N         2.30212888342264    2.10852630509945    0.15226357029251
C         3.41716353027764    1.25686518654034   -0.34662845966590
C         3.72763406203172    0.15151725644169    0.70301644293331
N         3.42664721451582   -1.09032838128386   -0.11453312581688
C         2.28412157737038   -0.87691856118828   -0.69836011816008
C         2.16983321330017   -1.41437952300985   -2.12874416566569
C         3.53437243847229   -1.10591997022512   -2.87347082035011
N         4.32075286706763    0.16104476801221   -2.88803900066952
C         3.55928422641338    1.35841446825768   -3.27048843779878
C         3.99083796255753    2.49794434897159   -2.31873873614276
C         4.62916771476821    1.78261560224244   -1.12303817452889
C         5.30080156054549    0.58609311431115   -1.86722661916156
N         1.27678547949428    0.07793830250173   -0.48823841764873
H         0.17388368972766    2.00075067570930    1.66404694922540
H        -0.93998132834842    1.21259322320566    0.67305723654649
H        -0.44325910978679    2.83789637143199    0.28314533292111
H         3.02259525950268    0.74792762053051   -1.19291087628381
H         2.98758956734724    0.05820056588430    1.50879370676600
H         4.78047253914895    0.13656986077140    1.00375319793824
H         1.35200012057739   -0.84497524161922   -2.58739884904744
H         2.02552334586221   -2.47404068387675   -2.36354463590319
H         3.20030541807245   -1.17162686547542   -3.92052122893357
H         4.22029192878741   -1.92153894242929   -2.61113363007052
H         2.47942004400897    1.17262756675526   -3.24491362757376
H         3.80705358255274    1.58668946449822   -4.31300355964282
H         3.14603183920871    3.10051576577957   -1.97269513140196
H         4.72502412549930    3.17395134690665   -2.77634461924819
H         5.40989084312007    2.33632219959131   -0.59438040508634
H         5.61153992374080   -0.14579358837440   -1.11719783246771
H         6.23126959953230    1.00128351351716   -2.27178058414125
H         0.33648937140186   -0.14486957827752   -0.81518044118575
