33
 energy: -44.344813252968 gnorm: 0.123033476304 xtb: 6.4.1 (79825abcba525fcdf90b791dcacef51065a7a4e7)
C        -0.09498773895532    1.60273268736381    0.76948773692220
C         1.20789294899991    1.13386445388742    0.17493058901114
N         2.32704450703131    1.67238685227518    0.55399476002804
C         3.38431214784536    0.87420636397349   -0.12616346595168
C         3.21850608415118   -0.56899997379810    0.43025743544139
N         2.81672167219167   -1.38696463415722   -0.78245195147393
C         1.90954808451974   -0.69046336831286   -1.40187473995663
C         2.11404923024338   -0.71849143348768   -2.92020220952257
C         3.66404471644672   -0.62823678136558   -3.23816517897846
N         4.54020659274518    0.51161290217905   -2.84207287894500
C         4.08265060292754    1.90812357646652   -2.85609795583288
C         4.46727231081483    2.56831654806994   -1.51192317387337
C         4.75498958749988    1.42969842968672   -0.52722654055944
C         5.26517220655222    0.37781183534616   -1.56154893022275
N         0.98895255585553    0.21391310828227   -0.84939324255765
H        -0.85733656789083    0.84836139633122    0.60747190694518
H        -0.25180007403334    2.54096615385957    0.23379622198035
H         0.01866759058206    1.84170255541841    1.84200098259787
H         2.96364423439809    0.81263609964455   -1.10091630678478
H         2.48321190290994   -0.48440776184329    1.24132924289629
H         4.13174480440319   -0.92029035600388    0.92191278125199
H         1.67552017946398    0.16446928850299   -3.40135597015834
H         1.76269088426705   -1.60847648277005   -3.45247308552111
H         3.75471888184687   -0.57395450424943   -4.33409599317006
H         4.19401731453084   -1.52597093238461   -2.89502805103800
H         3.00526282547416    2.03246533028257   -3.01437681293708
H         4.59634028389455    2.41816490164154   -3.67848330390995
H         3.60536082148711    3.10481227447145   -1.10471709345414
H         5.29049758596436    3.27715880680877   -1.67085939373503
H         5.55600881538869    1.66423678979944    0.17914346116972
H         5.33024659811669   -0.68070995472610   -1.29686686356132
H         6.32562032300638    0.57827250212613   -1.75411855666352
H         0.28391330591569    0.57278598574999   -1.49345931969685
