33
 energy: -44.346744529590 gnorm: 0.120483944595 xtb: 6.4.1 (79825abcba525fcdf90b791dcacef51065a7a4e7)
C        -0.07843323290795    1.87988425616950    0.56546087677351
C         1.25691180127609    1.32570144331163    0.14052703511146
N         2.30012190939416    2.09687493057885    0.08395524176083
C         3.47155460464400    1.28233532789973   -0.34241647440345
C         3.85677104150915    0.20877809402221    0.71542262593856
N         3.32157691504925   -1.04665559260514    0.05314288456513
C         2.22322916500928   -0.91022073739861   -0.63007032382547
C         2.22779548469638   -1.51159392847596   -2.03941558484981
C         3.64129405060558   -1.15769200290075   -2.66271937295488
N         4.22197024175094    0.18598329643951   -2.94760164110792
C         3.46466041813507    1.37396608440953   -3.36590175090198
C         4.03324192528309    2.51549121803377   -2.49169931094363
C         4.58793501439193    1.82546559282653   -1.24068367439139
C         5.23106018018615    0.59101311416881   -1.94714784339699
N         1.21156229419566    0.02288720669259   -0.35354097091500
H         0.02338839752172    2.93469964479970    0.79675671268479
H        -0.42977041908472    1.29433878019333    1.41724501635944
H        -0.74143560339598    1.74013357942431   -0.30701055964400
H         2.98904983994089    0.72594491765469   -1.10956336772538
H         3.21779349912808    0.54313263756694    1.54341151070416
H         4.92340955867181    0.07725541872790    0.92546769032187
H         1.45720253183804   -0.96226857708838   -2.59427095414397
H         2.05749853529467   -2.59056333505104   -2.11466411600581
H         3.58142759807444   -1.61640411159177   -3.66183494914015
H         4.29056166805370   -1.70888641945749   -1.97049330065390
H         2.41030989525848    1.32846616534599   -3.07000949554932
H         3.58990795346356    1.54130371617237   -4.44137749466012
H         3.24768050968376    3.23620473374380   -2.24674796338530
H         4.77377436049438    3.08500879999097   -3.06848294446019
H         5.32134175736108    2.53852400457498   -0.85434071807958
H         5.57651528780720   -0.15472044555153   -1.22652180866427
H         6.11721538156850    0.94898584235647   -2.48417878715945
H         0.29619049926319   -0.17190428415300   -0.75954830888121
