33
 energy: -44.346469064297 gnorm: 0.130814070419 xtb: 6.4.1 (79825abcba525fcdf90b791dcacef51065a7a4e7)
C        -0.04169317187486    1.98293954466884    0.54541133343444
C         1.25284781147032    1.33767534507793    0.12276316794587
N         2.29601720210113    2.10731926594117    0.04764918321730
C         3.42395136528478    1.26047678597860   -0.42999558070084
C         3.77300411021118    0.24346976734597    0.69419271606820
N         3.40817440577575   -1.06761259988391    0.02402610971529
C         2.27995188323433   -0.91493513640672   -0.60491433167137
C         2.25702683227971   -1.51058936376773   -2.01650744153384
C         3.62057751377651   -1.21151900671219   -2.76685325113888
N         4.18938718356454    0.15679753962451   -2.93409990465086
C         3.44230374410443    1.36960292791384   -3.29571528090263
C         3.97532938555098    2.52589994733942   -2.41852924695493
C         4.61303549407231    1.82914021961269   -1.21158404396486
C         5.21132781294764    0.59845671589050   -1.96260930695586
N         1.26830516268343    0.00980435011176   -0.30150608029141
H        -0.00969746473846    3.02018346495664    0.22981311069452
H        -0.16830368480548    1.81861144099377    1.61723389158636
H        -0.74780333068224    1.35780617539078   -0.02984992907375
H         3.04025721401696    0.67368462593915   -1.22958876190511
H         3.00176716159409    0.50466475952186    1.43082125567123
H         4.80932419158429    0.17717790661424    1.04172826394216
H         1.46771024429622   -1.07251346136741   -2.63980924998125
H         2.07808165337912   -2.59039499110832   -2.04543498798060
H         3.53280442067849   -1.65897872968292   -3.76900513652454
H         4.43186858520427   -1.75249543869244   -2.26317482890798
H         2.35533727398543    1.25765345586909   -3.21057596795603
H         3.84035976652673    1.66996063406859   -4.27125285476741
H         3.17987831094578    3.18357153255854   -2.05622888974001
H         4.70730051725590    3.17258629115909   -2.91996016189830
H         5.28000267100251    2.48056550797987   -0.64027106777453
H         5.43380753764537   -0.13327961573897   -1.18169678197122
H         6.07294753467873    0.92245036340362   -2.55797249269579
H         0.34831968621752   -0.31988257828131   -0.59412266094551
