33
 energy: -44.342576641297 gnorm: 0.118756486269 xtb: 6.4.1 (79825abcba525fcdf90b791dcacef51065a7a4e7)
C        -0.05257274120244    1.79178738208018    0.69974443404592
C         1.14366560262028    1.14755961684649    0.04796372145044
N         2.27927609918777    1.60366734922108    0.48218803528566
C         3.39830871066366    0.83157793926773   -0.12540238444985
C         3.31306872009451   -0.62428100850969    0.41603022476504
N         2.86628998818461   -1.33392555553861   -0.84807195822443
C         1.88520493451879   -0.74759179392933   -1.46891603048778
C         2.13555910786592   -0.76742607348874   -2.98048937599887
C         3.66969095213388   -0.55686272743462   -3.31788366774346
N         4.46276854600145    0.56111166351237   -2.73054456201028
C         4.11247464903929    1.98761381422421   -2.77725691114835
C         4.42988022359368    2.61274869346805   -1.39919503101705
C         4.76168406787297    1.44133883379629   -0.46830026714056
C         5.25939344873300    0.38027690759998   -1.49932281019474
N         0.95892920109124    0.13721867769312   -0.89467529166986
H        -0.52160789740993    1.19655379429880    1.47576240971454
H        -0.79580428622376    2.11697110675802   -0.03080326939874
H         0.33505191811943    2.67061736712890    1.24537597444344
H         3.08741067678018    0.62019541400166   -1.12016634150098
H         2.45905819996135   -0.68010736283148    1.10392578500714
H         4.15723090843265   -1.07410958638733    0.94911494297508
H         1.39972716536628   -0.09997112045591   -3.44577589352356
H         1.97444501974052   -1.77682140295454   -3.37291986593356
H         3.92237153918187   -0.48776194882185   -4.38728084067639
H         4.20323591594176   -1.46912225479853   -3.02182121528414
H         3.12594614283922    2.11401954861836   -3.23775727661094
H         4.85045398445495    2.51528157608198   -3.39149638880034
H         3.61139613646789    3.18067719438812   -0.94744633080261
H         5.32189229128843    3.23233815254734   -1.55994731962639
H         5.44419208280853    1.56637906024709    0.37677155262600
H         5.11142811256054   -0.65404701540563   -1.17832446620852
H         6.29638074400883    0.54990390505514   -1.81189564813997
H         0.00656834364634    0.06626735880941   -1.25337558176071
