33
 energy: -44.343313509389 gnorm: 0.129632185814 xtb: 6.4.1 (79825abcba525fcdf90b791dcacef51065a7a4e7)
C        -0.08154015238229    1.86128458385853    0.42430379528771
C         1.24181533982192    1.23591157224477    0.06587309890382
N         2.34063263520055    1.75929677218028    0.51849295917671
C         3.34722756007138    0.82162859818090   -0.05165372796876
C         3.34483600466831   -0.62053115757710    0.53153572832151
N         3.00252784429538   -1.45903065707648   -0.68538854246416
C         2.08929895105162   -0.78815465568451   -1.32390316861603
C         2.12374308468581   -0.79944127343718   -2.85576831899871
C         3.57241023603874   -0.43472367219779   -3.38499126347772
N         4.46393251820847    0.63104729289788   -2.84357984421244
C         3.93976145579951    2.00172093695754   -2.76424058425203
C         4.48787608782794    2.54122657215543   -1.42293581240709
C         4.71740747734418    1.32965189962956   -0.51284676407644
C         5.18903110328611    0.31021883415201   -1.59677568837624
N         1.17255102937645    0.07908168731062   -0.70900223735104
H        -0.82258368430876    1.61368083411272   -0.32805767422115
H        -0.00320448441521    2.94595197053570    0.52020857505794
H        -0.50949522023152    1.39263973900325    1.32848036355919
H         2.95553733928521    0.60156781989205   -1.01552484159939
H         2.66077530079553   -0.76557744851517    1.37810136897598
H         4.34179317911732   -0.86197368642298    0.91483297334882
H         1.38509794244010   -0.08879421858220   -3.24669085939648
H         1.82240719177925   -1.78684403985440   -3.22055707009882
H         3.61314050228122   -0.31587604714011   -4.47881437823647
H         4.09541722834011   -1.38217168966491   -3.20238075320762
H         2.84444849365323    2.00877696737049   -2.72528902806555
H         4.27340561147029    2.58705673598366   -3.62818530766345
H         3.76558559739359    3.25500187563293   -1.01629452272361
H         5.42924604942789    3.06303212566083   -1.63963719155968
H         5.40115676448865    1.37118043990735    0.33942134712670
H         5.09030756782236   -0.76730670826930   -1.44201126130181
H         6.20998801389310    0.56055232137192   -1.90789927277284
H         0.24603021644722    0.12211540085999   -1.13373568341701
