33
 energy: -44.340321520341 gnorm: 0.128591985095 xtb: 6.4.1 (79825abcba525fcdf90b791dcacef51065a7a4e7)
C        -0.04225779665073    1.89847059858357    0.48304766906832
C         1.32857019814741    1.33865762242708    0.20327322493828
N         2.35802134683145    2.12957181597874    0.23295978260028
C         3.44148389416823    1.29484814933798   -0.35599478378105
C         3.90554932409930    0.22773135040927    0.67640311428170
N         3.39986720351416   -1.00773001064151   -0.04407017600984
C         2.24765816937681   -0.90019404705633   -0.63788232785109
C         2.19338121507515   -1.52256350428976   -2.03703738310474
C         3.54433386502358   -1.17781755370308   -2.79056874288232
N         4.31796066981046    0.09607676675983   -2.84057724448320
C         3.54335716163222    1.24719352243907   -3.32505207618675
C         3.87893250082584    2.50289579551475   -2.48767793448579
C         4.53370029762328    1.91904407952400   -1.23099332229435
C         5.22450344794244    0.64510383150231   -1.81102932953769
N         1.27127777254178    0.07638407007779   -0.38568154811566
H         0.10806117058045    2.96091402817427    0.64153766291997
H        -0.53067508820651    1.49177861768956    1.37067806332526
H        -0.68719402341717    1.82358369193065   -0.41068495621529
H         2.93676467994363    0.70103757880422   -1.07955750512317
H         3.23459161039243    0.37934799866465    1.53225297874539
H         4.94863848472354    0.08847304421625    0.97923474224242
H         1.30063614541652   -1.14321984770551   -2.54942486816820
H         2.24746869193351   -2.60796937662037   -1.90359448166632
H         3.41417263834572   -1.53779811895634   -3.82289851581678
H         4.25850184799227   -1.96545356530373   -2.51829268595219
H         2.46709946320055    1.04144961821427   -3.30022664990555
H         3.68498407121273    1.56850010532474   -4.36285783704500
H         2.99120555970292    3.10029438833816   -2.26053993915766
H         4.59084946534803    3.10655306370168   -3.06576967561033
H         5.18889013260798    2.64565946543380   -0.74277719268798
H         5.39965056187051   -0.09022989630514   -1.02149310649709
H         6.13389126158442    0.98953603453335   -2.31718939006438
H         0.34313874212206   -0.03736857040001   -0.79349212553209
