33
 energy: -44.348557921634 gnorm: 0.115843894430 xtb: 6.4.1 (79825abcba525fcdf90b791dcacef51065a7a4e7)
C        -0.07955962990509    1.77065545318865    0.62184750343740
C         1.17172587042461    1.20585476741935    0.00046316819342
N         2.30717807261582    1.62089184225213    0.47447663777569
C         3.38544935659768    0.83027047696684   -0.18109263565497
C         3.28919009185935   -0.58748584584916    0.45186990511571
N         2.81412740228951   -1.39401936749410   -0.74185538950455
C         1.88663733275602   -0.80369654426022   -1.43686883214596
C         2.14195362513951   -0.79118673045601   -2.94769037368505
C         3.67492668985964   -0.56983809572687   -3.28344436730539
N         4.49957822422762    0.55727231904739   -2.76058873120925
C         3.96281450608982    1.92182850591904   -2.66226588055232
C         4.49121069028792    2.63185863495660   -1.39449257356238
C         4.76485609261477    1.41259705963824   -0.50714860198288
C         5.35418391866518    0.42494839959960   -1.56252406438475
N         1.02628099388667    0.18913798425916   -0.94220192283567
H        -0.41354293154183    1.26720131501621    1.52267489743637
H        -0.89153225144717    1.88808623952217   -0.09839412877593
H         0.22191176487308    2.75516773341385    1.02204666204905
H         3.10335836349479    0.62485580862524   -1.18564476431949
H         2.58477372392235   -0.61046607447844    1.29384398047703
H         4.20386474497570   -1.02217437460417    0.86846447711417
H         1.56258279012093   -0.02936715886109   -3.48378429401314
H         1.84117390973089   -1.79333423479044   -3.27028969978981
H         3.62961988601193   -0.50242947529388   -4.38145898316819
H         4.11366070155865   -1.53731456498520   -3.00768649253304
H         2.87017226260695    1.86719478789510   -2.59574084103957
H         4.21379668940229    2.53068159800770   -3.53784726520649
H         3.73636708140618    3.26317987752560   -0.91681015941823
H         5.47242695105534    3.11154511183006   -1.50644551407303
H         5.40256249013627    1.46650316353193    0.37943095968935
H         5.46140691947400   -0.60936450605559   -1.22568627141776
H         6.36887491288847    0.70618388547898   -1.86769047484286
H         0.26705428975549    0.34581188856340   -1.60531527111300
