33
 energy: -44.343797055286 gnorm: 0.117280686697 xtb: 6.4.1 (79825abcba525fcdf90b791dcacef51065a7a4e7)
C         0.02230617546042    1.97808300598462    0.34868025982512
C         1.26445518772822    1.17021108730801    0.07437661960845
N         2.38232185423694    1.56368953741160    0.60517323657652
C         3.44930473788304    0.74943499412217   -0.03985329798264
C         3.42931917008924   -0.72093974031959    0.46762982285273
N         2.91377236256962   -1.46566259637739   -0.74923512529100
C         1.98291476374194   -0.82362986604022   -1.39193304266521
C         2.01404637265351   -0.76325769194012   -2.92272062804028
C         3.48118817055021   -0.40230879274274   -3.40120072021121
N         4.35282720832305    0.54595855927473   -2.64964203429491
C         3.84584664058851    1.92477270868862   -2.60916367739938
C         4.43100399064790    2.52319200596330   -1.30913302909860
C         4.81359691179708    1.33178685645249   -0.42423962254144
C         5.31170906873778    0.36128119297186   -1.54074199832472
N         1.14923233477360    0.20449154660460   -0.92441972005868
H        -0.00844554497581    2.34498778040192    1.36894303063906
H        -0.88485039598534    1.47784357902114    0.00420238584643
H         0.18311215061126    2.79281552975585   -0.37978467090613
H         3.13016312164875    0.60048042391898   -1.04327576969751
H         2.71934735827660   -0.71245962968934    1.30519711177723
H         4.34706804395233   -1.24268390564676    0.75858497404704
H         1.26589310493633   -0.08343517501003   -3.34880083077271
H         1.91446133216268   -1.72570194305248   -3.43518746064369
H         3.36715220203180    0.05730029712764   -4.39517657579334
H         4.03187841089174   -1.34990642432395   -3.45899033102661
H         2.74989450760882    1.92157651110103   -2.62166164384173
H         4.06292519346687    2.52560077128036   -3.49923077791730
H         3.67004423351016    3.13514960080540   -0.81619893275498
H         5.23825660837003    3.25000015653493   -1.46885481111831
H         5.46908382171334    1.55319358047592    0.42246847542146
H         5.40230543872703   -0.69768894509442   -1.28552797851195
H         6.35756630124320    0.58847071611042   -1.77819791715638
H         0.19704753157889    0.07530277730457   -1.26697710007273
