33
 energy: -44.344580695985 gnorm: 0.113548698410 xtb: 6.4.1 (79825abcba525fcdf90b791dcacef51065a7a4e7)
C        -0.07223672132953    1.89448668306286    0.48158092316687
C         1.25218995482676    1.33670138065616    0.02814601211820
N         2.34069906525648    2.03241199101304    0.15979279947250
C         3.49962902076389    1.22233957158298   -0.30731124066182
C         3.82825506184473    0.11934441138024    0.73927702173136
N         3.34607550725395   -1.09900972190179   -0.02510313609252
C         2.23087481582721   -0.91749612218617   -0.66941885284820
C         2.21469350558993   -1.49443083600365   -2.08885857121180
C         3.53067076611916   -1.05816263424649   -2.85671680523512
N         4.22407694685266    0.25802384910072   -2.95990134716277
C         3.47324025560432    1.48905129601154   -3.24382375927186
C         4.07580373624174    2.59893793623701   -2.35182411836097
C         4.62866298570871    1.82524596543077   -1.14990594794403
C         5.21200302928363    0.59562643263918   -1.91431730047856
N         1.22739328327790    0.05127620951870   -0.51088266681804
H        -0.17877741270967    1.48631330960595    1.48085290330918
H        -0.94234985520859    1.56216462385067   -0.08789489879252
H         0.06094672650368    2.98619941290402    0.58518727596837
H         3.05838458124825    0.71651871969496   -1.13214098181326
H         3.13429256080983    0.21564001028135    1.58473196060209
H         4.86805454654417    0.04293931423326    1.07411154413198
H         1.40133147525382   -1.01581578518252   -2.64814933310215
H         2.14946694042162   -2.58452681159080   -2.16807110015834
H         3.23341909845510   -1.28187393016916   -3.89297325193075
H         4.22833516723014   -1.80146570315946   -2.45013890832521
H         2.41046105126329    1.35569795294063   -3.01145607501842
H         3.42921599522950    1.69639193606798   -4.31872311458214
H         3.32518142070862    3.33005095630635   -2.03785634848295
H         4.99003357174160    3.00499001296976   -2.80428786656968
H         5.45859541207938    2.32698580387706   -0.64486344850609
H         5.33731417305853   -0.15625750334850   -1.13090979649565
H         6.21928720105965    0.85384931808379   -2.26147329360278
H         0.35499791740105   -0.45721964936947   -0.65596705795377
