33
 energy: -44.340077891475 gnorm: 0.130983654268 xtb: 6.4.1 (79825abcba525fcdf90b791dcacef51065a7a4e7)
C        -0.06542201724679    1.88983181836352    0.49769874630727
C         1.18516051733304    1.13550342248841    0.12639604078308
N         2.32082856461718    1.64984239307602    0.48958987085233
C         3.38540204090835    0.74169397430987   -0.01979401016360
C         3.29860920446700   -0.69061779175267    0.58094754585562
N         2.99972131364099   -1.41560019439737   -0.71760068387963
C         2.05956069467175   -0.78537707315268   -1.35844337869205
C         2.09042023542024   -0.80757893301429   -2.89026562297078
C         3.56364084275903   -0.46837887109109   -3.36597218422359
N         4.44160684258261    0.61249908404018   -2.83241375435825
C         4.05424004250906    2.03001325516137   -2.81249414806601
C         4.38981829214936    2.50977674694170   -1.38147748315779
C         4.72870611234722    1.31397693442165   -0.48477364816041
C         5.25592572959948    0.38265016982066   -1.62110302617844
N         1.14976442271844    0.16991203233341   -0.87852439375961
H        -0.76166925319449    1.38697198920441    1.16017341275654
H        -0.65399467726530    2.21206730854229   -0.36345399722921
H         0.25338388761111    2.75067487311663    1.11220735190869
H         3.04372239135163    0.63239551567755   -1.02089558326849
H         2.47141293173652   -0.73671475976331    1.30155301916397
H         4.23541714778037   -1.12457663060279    0.94592080372729
H         1.51365363716599    0.06045954120061   -3.23273579610725
H         1.90428516022239   -1.75625144942708   -3.40428173264208
H         3.55119346805337   -0.32661120107653   -4.45775041762993
H         4.14286585888975   -1.38966687134682   -3.22360836399340
H         2.99525823919481    2.17300005529288   -3.05619438963185
H         4.73331408331396    2.45451563603858   -3.56015254686001
H         3.52060173697035    2.95656807778910   -0.89017720781326
H         5.11479502413844    3.32979119579127   -1.46751797165646
H         5.37641050473971    1.44611045305428    0.38621336997664
H         5.20137820604521   -0.68799089731721   -1.40776777584969
H         6.28070548869339    0.70903422501792   -1.83351216670799
H         0.19094897781236    0.06377321563868   -1.21033563789440
