33
 energy: -44.345462742554 gnorm: 0.133571317005 xtb: 6.4.1 (79825abcba525fcdf90b791dcacef51065a7a4e7)
C        -0.03886024035657    1.91735655324556    0.58933616372525
C         1.25585058383938    1.30660542507056    0.11865512975291
N         2.26744186654638    2.11843430648042    0.05690431123538
C         3.44030460634789    1.32706469044155   -0.40747623314339
C         3.74277167903358    0.32498615902187    0.74330293456476
N         3.40869476463973   -0.94789696698627   -0.01123143403109
C         2.27295426467316   -0.87322479785340   -0.64073925747103
C         2.28023499790311   -1.55779577205996   -2.01159087316274
C         3.54065338640687   -1.17663212300252   -2.89351609575824
N         4.26675311656604    0.12475387523281   -2.83892950671591
C         3.54605838489616    1.31320644313218   -3.31639766875082
C         4.03100591993112    2.53381952321676   -2.50060108858621
C         4.60245244651240    1.88948635730782   -1.23286943351342
C         5.23505463515785    0.59109518479290   -1.82495840655602
N         1.21326647915849   -0.03349232812299   -0.26319467560916
H        -0.07195031214251    2.98070055614231    0.80077286397842
H        -0.23669720656761    1.56881772187618    1.60482558146699
H        -0.84939421588375    1.50584780403399   -0.03836122849552
H         3.00766414091657    0.78613861269184   -1.21439425784247
H         3.00734386359010    0.52531817637610    1.53365972900688
H         4.78564740756751    0.27612542522818    1.07369318241366
H         1.34229488932134   -1.29352633641349   -2.51544235979758
H         2.27372889408848   -2.64947068105197   -1.92767468610461
H         3.13329823920363   -1.17757082854353   -3.91640104473879
H         4.31128026058861   -1.93303316259133   -2.69721954593046
H         2.45903394082555    1.17445965739998   -3.33651430223484
H         3.91723663325325    1.38370984863897   -4.34479101850660
H         3.19757507546755    3.16319672597869   -2.17531162399855
H         4.76347716255207    3.09634431370946   -3.09429264398613
H         5.34861540305807    2.55502416500949   -0.79026476133809
H         5.61496328102465   -0.28710811634706   -1.29657593819002
H         6.05612519032192    0.96772901871580   -2.44609272932831
H         0.31105204284734   -0.38191947204614   -0.58769248177627
