33
 energy: -44.341020896912 gnorm: 0.132039394657 xtb: 6.4.1 (79825abcba525fcdf90b791dcacef51065a7a4e7)
C        -0.09273832949050    1.93725685056101    0.61282957123884
C         1.16155477779734    1.33159787112422    0.03771246546772
N         2.22508012671128    2.07634679471364    0.05913900985737
C         3.45653758208140    1.37216089237377   -0.39380347922301
C         3.84347067577324    0.33074788904607    0.69508684469699
N         3.37174092760713   -0.94538632342857    0.02418188635112
C         2.29630173296021   -0.84373111249070   -0.70028983898837
C         2.29348263819846   -1.68570576053315   -1.98052237567220
C         3.56644708293489   -1.23558078612572   -2.81039067864150
N         4.12116347571552    0.14857513658635   -2.82481809990915
C         3.49102869989130    1.38728547108850   -3.30264978606343
C         4.12420430789687    2.53498858872538   -2.48261279436295
C         4.65618989236034    1.84321945177921   -1.22272918521130
C         5.18952000998330    0.53089272349611   -1.87842123343939
N         1.22335559782534    0.02269588748050   -0.43814562768072
H         0.14762345816406    2.85399324635981    1.14039141445985
H        -0.64279864305912    1.22584769959877    1.23183538986968
H        -0.68025129136972    2.25130940571233   -0.26836751643539
H         3.01308301609165    0.73547200849680   -1.12103852068415
H         3.17205230810593    0.43489654407926    1.55764193635981
H         4.90444804793899    0.17570471030612    0.91740080916442
H         1.35485268621737   -1.43857045042676   -2.49173100727121
H         2.45749216073316   -2.73230708562892   -1.70381871628286
H         3.35602654271443   -1.36129978015907   -3.88377348661780
H         4.36280451324961   -1.91308992593113   -2.47671888832466
H         2.45006832894498    1.43095278767380   -2.96239669624924
H         3.61093151305792    1.55560304520425   -4.37858166619675
H         3.32797669555090    3.23972039911409   -2.22588231895838
H         4.88653523525786    3.10741620388668   -3.02721917143284
H         5.32103142234201    2.55911526473493   -0.73173269748994
H         5.52924263511466   -0.18806249353796   -1.12845350974646
H         6.00303876924707    0.83294857512121   -2.54832215120599
H         0.31659035217672   -0.37169275234201   -0.68899535579092
