33
 energy: -44.344166043465 gnorm: 0.126161007187 xtb: 6.4.1 (79825abcba525fcdf90b791dcacef51065a7a4e7)
C        -0.16208531246901    1.76106619062041    0.52519511673154
C         1.13014211508099    1.12553128291169    0.08126116842030
N         2.23311180355473    1.59533632512085    0.58019734436329
C         3.39556603612645    0.91765350999270   -0.05774333372370
C         3.29138836969861   -0.54026157154728    0.47477054137684
N         2.93556871836037   -1.35904725591168   -0.75166467260826
C         1.97773789797758   -0.76368411292861   -1.39963487126769
C         2.12917608586006   -0.68343716747968   -2.92231392661818
C         3.66021886697233   -0.47416786067913   -3.27423256094965
N         4.53413569276657    0.65217019978219   -2.83669626805926
C         3.98333927397075    2.01059041948678   -2.73127298450912
C         4.69664520675357    2.56452439410928   -1.47630435366815
C         4.78460584429620    1.36877679418966   -0.52167850696760
C         5.19237421377758    0.28301903957156   -1.56639357586224
N         1.00539988774784    0.04868741187687   -0.79528393793194
H        -0.58751972894864    1.06548572201596    1.24050923050079
H        -0.90264680648106    1.90566332245212   -0.26379022911288
H         0.14070117208971    2.70008215216385    1.02206347353352
H         2.97727650640922    0.89486706444152   -1.03519417058229
H         2.53516343520617   -0.76333611005552    1.23897761286971
H         4.27759147751547   -0.91970528910025    0.76210444165294
H         1.46470442288443    0.09490267715366   -3.31740986867361
H         1.77351342049249   -1.63242403150507   -3.33676099347869
H         3.64290653827698   -0.34336898850168   -4.36731291571772
H         4.16356299643164   -1.42412490197783   -3.05340013449492
H         2.90143041219944    2.07004870421341   -2.56630201397094
H         4.29415610967732    2.55139195457395   -3.63197465502794
H         4.08906574730067    3.39584083073828   -1.10712140048722
H         5.71117558661208    2.91031100511700   -1.71416492408329
H         5.50102092268842    1.51774109139074    0.29082238385097
H         5.06883409908802   -0.77730596276202   -1.33142893042133
H         6.25647764061828    0.32358729514982   -1.82688515657043
H         0.12008007062682   -0.09290541765803   -1.28195784225082
