33
 energy: -44.336820908611 gnorm: 0.119758133233 xtb: 6.4.1 (79825abcba525fcdf90b791dcacef51065a7a4e7)
C        -0.03306547102737    1.89268188624225    0.38913774940244
C         1.32354160002055    1.38541232957171   -0.02694943114201
N         2.35295985341139    2.17551238433440   -0.07423773374685
C         3.54726300259175    1.32976947731749   -0.34970294349379
C         3.72355424712652    0.28812110349539    0.79215101030386
N         3.38621562018281   -1.05055950573860    0.16342386555493
C         2.33079048684693   -0.91156142435815   -0.58391798068879
C         2.33230782373825   -1.56393457843557   -1.97039970186520
C         3.52732857167361   -1.17392356135044   -2.93556765079004
N         4.07635505866322    0.21257113871462   -2.93266851010912
C         3.24821341164648    1.41983895508483   -3.06105106045364
C         4.03682128029564    2.55560345759919   -2.36914710148880
C         4.71639575473726    1.80294635396246   -1.21999709813249
C         5.13216427058959    0.47847368678958   -1.93377802895272
N         1.34229565880890    0.08344073683730   -0.52494835272442
H         0.05763433587784    2.96063339188624    0.55573317421062
H        -0.10712358141864    1.45650570513794    1.38718748757565
H        -0.84205310991449    1.43901800238382   -0.21089297403837
H         3.11278524928181    0.75474422801456   -1.13166875886980
H         3.07892309987266    0.47040342790131    1.66213646091503
H         4.70391741838592    0.24924408034853    1.27847548606307
H         1.37529409628880   -1.41327202229605   -2.48504698265055
H         2.57054238082360   -2.61936280517286   -1.80260837187466
H         3.27533040553988   -1.33061372788790   -3.99584017726235
H         4.36746031486682   -1.80209192398240   -2.61288543384541
H         2.18118056781511    1.25527870450155   -2.87226990609171
H         3.20325198373046    1.75421467685442   -4.10340812473422
H         3.48480108586630    3.41279747873557   -1.97287953284697
H         4.72639561153109    2.98548622233676   -3.10746002596420
H         5.46966587653194    2.34614113773706   -0.64282972307625
H         5.22591032099793   -0.26415650644632   -1.13724069190733
H         6.08365349217487    0.56837030557758   -2.47081118027570
H         0.46743670314525   -0.24203596666861   -0.93650384213998
