33
 energy: -44.340746373973 gnorm: 0.121598957029 xtb: 6.4.1 (79825abcba525fcdf90b791dcacef51065a7a4e7)
C        -0.01466724391256    1.82485029254527    0.69702717902558
C         1.30190056224922    1.29340508940202    0.19200347690544
N         2.36589805357089    2.03778234580526    0.18915827379739
C         3.50125471338013    1.26668903028500   -0.38868473016420
C         3.70145409765988    0.18607436855286    0.71228419735185
N         3.17548756849194   -1.03849370309151   -0.01225234873044
C         2.21266118201321   -0.82135791649289   -0.85935325694578
C         2.27747345730081   -1.57907579110897   -2.18961172689803
C         3.54180734531981   -1.11114188117526   -3.02281640627535
N         4.17493523443799    0.22385554201110   -2.82098231756334
C         3.56344211602961    1.46711276081611   -3.31106792572987
C         4.03284870656094    2.58085796668597   -2.34679434653241
C         4.68430770996456    1.85682531561780   -1.16347790270029
C         5.20894776414518    0.53812929472713   -1.81337646921284
N         1.19943161156359    0.05564948091194   -0.44119940655872
H         0.06576291350198    2.28087703604310    1.67787962095479
H        -0.79292984651943    1.06461499554933    0.78751009384526
H        -0.30605597382826    2.61581040842286   -0.01696407126965
H         3.03983277415803    0.73029222268705   -1.18257625551178
H         3.20288625529172    0.49059871725100    1.64198623571651
H         4.72810924921829   -0.11470438336080    0.94604950982211
H         1.35317761070479   -1.45993418347026   -2.76833339636048
H         2.39071250989535   -2.65273894484021   -2.00723102027932
H         3.31941222262828   -1.28137382923057   -4.08761413781391
H         4.27530717451773   -1.87445280724267   -2.73320445163043
H         2.48012799471109    1.48951884190355   -3.47601025715830
H         4.02465100662618    1.75409662704080   -4.26252130006529
H         3.30201249207207    3.33075304473501   -2.03045327690529
H         4.82899361715675    3.18791813148776   -2.79740411623085
H         5.35675080321939    2.46070379130314   -0.54805145813623
H         5.24291071637681   -0.20055256442189   -1.00841977156382
H         6.16547868578512    0.71126012657890   -2.32022167156694
H         0.22684495605657   -0.05036545008088   -0.73021020130074
