33
 energy: -44.340435265980 gnorm: 0.144595551264 xtb: 6.4.1 (79825abcba525fcdf90b791dcacef51065a7a4e7)
C        -0.03358856288472    1.98731895963994    0.52893573545526
C         1.23567805677285    1.32181790871976    0.06320589592411
N         2.27356990219487    2.10152527052547    0.03106300247640
C         3.40340312629188    1.26215770465284   -0.45520970187794
C         3.84720795240940    0.25643837694946    0.64547477616907
N         3.37449929235546   -1.02535333878400   -0.01385630232173
C         2.24065545624154   -0.89720034937904   -0.63814588502367
C         2.21865485654386   -1.50466062932711   -2.04471354560599
C         3.63679591648257   -1.20386290443020   -2.68512671303623
N         4.24123015789250    0.14516054539921   -2.88159815115302
C         3.47086736541242    1.33454411609425   -3.27109031047928
C         3.98727525495672    2.54386596293672   -2.45778961042893
C         4.58802197663087    1.84441857346470   -1.23356061162693
C         5.26947918363694    0.62912202110973   -1.93729698905993
N         1.19533355791429   -0.02387808148951   -0.29867707111293
H         0.11098132340569    3.04283561939241    0.73261447964680
H        -0.35610114199397    1.50434994411979    1.45336209971161
H        -0.80695262575882    1.77791031405896   -0.23156727955484
H         2.99927153366587    0.69782596849431   -1.26087888840177
H         3.24427730172735    0.36963701750623    1.55614022015658
H         4.90097129003619   -0.03771837252982    0.69226700182835
H         1.26367345008747   -1.10753122752701   -2.41041159628776
H         2.19450812362731   -2.58745187533144   -1.88403240388467
H         3.63008031535199   -1.60162775749862   -3.71175748504122
H         4.43311997606139   -1.70485835192918   -2.11996106699768
H         2.39113506327170    1.35282018817162   -3.08368264495621
H         3.68021141196604    1.54451772425677   -4.32580499164445
H         3.17750364700628    3.24355098297473   -2.23141229632295
H         4.75145258965167    3.17799009387760   -2.92612444011594
H         5.23943093905021    2.40706813154707   -0.55925320975050
H         5.53292602300041   -0.17280021084408   -1.24283593675691
H         6.11430412354937    0.95850269752750   -2.55341137799287
H         0.25316123440680   -0.31284113315759   -0.56231101845109
