33
 energy: -44.343535961583 gnorm: 0.121759055372 xtb: 6.4.1 (79825abcba525fcdf90b791dcacef51065a7a4e7)
C        -0.10472884012334    1.66242629139012    0.67976827661709
C         1.19220838279734    1.08665433423698    0.17254622078224
N         2.29922564389884    1.65485687660892    0.54383438246341
C         3.35379098399878    0.83921296642330   -0.11959544300108
C         3.31868218897676   -0.60957690560497    0.44583862981586
N         2.85010226582361   -1.40522216215226   -0.75771545705130
C         1.91502866593583   -0.76401780979149   -1.39509829648750
C         2.08522010908452   -0.59362533542404   -2.90834840768991
C         3.60959085439817   -0.50095595661299   -3.33195032457058
N         4.48790169991773    0.57483337000729   -2.78876211277091
C         4.14812577293469    2.00286088004802   -2.86007832739018
C         4.55916081033741    2.56083189076976   -1.47793759164568
C         4.73187147518125    1.36360205642491   -0.53683628856395
C         5.26517105317153    0.31217835795384   -1.55990729953579
N         0.99249071302227    0.11668508582910   -0.80865570508078
H        -0.21276779982686    1.87748615711541    1.73739663483674
H        -1.01587173350068    1.17359904375013    0.32947684433422
H        -0.21205768573680    2.66347218180078    0.22512946952431
H         3.00667618688565    0.70844621983062   -1.11624325963588
H         2.71307616231287   -0.59682715085043    1.36166046608634
H         4.30675571380204   -1.00589953158960    0.70230297939618
H         1.51820370792952    0.29204528368759   -3.22062435887475
H         1.70429145381385   -1.43273132056527   -3.49964603044839
H         3.73939432977678   -0.57559880896865   -4.42273546313597
H         4.12782392120346   -1.40365813751358   -2.98395044507206
H         3.13059761089541    2.20525985922334   -3.21355899780808
H         4.71194328607053    2.46564282239115   -3.67756202084971
H         3.86641665502208    3.30797474124313   -1.07991878830695
H         5.51822458189135    3.09526100905311   -1.47758461772802
H         5.47787925005913    1.39746847041870    0.26186521980206
H         4.96697505512476   -0.66453384714928   -1.17019962239128
H         6.33484395992896    0.39512943772233   -1.78515547281261
H         0.03493094906385    0.19080939530803   -1.15256861782856
