33
 energy: -44.336039317393 gnorm: 0.134974768355 xtb: 6.4.1 (79825abcba525fcdf90b791dcacef51065a7a4e7)
C        -0.05282343896240    1.71626328169816    0.57781742717405
C         1.21069589153215    1.15143327146720   -0.01826952647444
N         2.31741681025539    1.68136100178288    0.40663238812405
C         3.42820932926585    0.87712519391743   -0.17376998774277
C         3.28225877974912   -0.51136094172275    0.51233867778830
N         2.82628610663171   -1.44182623079864   -0.59558019091618
C         1.96586346261192   -0.84401169723355   -1.36632864425653
C         2.09973901676396   -0.88774461551663   -2.89213642100182
C         3.54968246644967   -0.47569142714720   -3.38163465204070
N         4.34381699641455    0.58360491394935   -2.69530554177230
C         4.05858624190394    2.02511056069391   -2.67291957226812
C         4.59210169257960    2.58535903038081   -1.33423462851901
C         4.85595509132861    1.35373163631719   -0.46111650232405
C         5.22855592281611    0.29638171719213   -1.54728145023539
N         1.06069652794478    0.15936349315257   -0.98614473856357
H        -0.50936277131819    1.09257131850307    1.33879119526623
H        -0.86362375774153    1.91570117818169   -0.12550675176360
H         0.03651660403637    2.68670894463482    1.09797351841852
H         3.14410814586907    0.75481849821651   -1.19122911817028
H         2.43754022123808   -0.42737070289395    1.20879187223574
H         4.22936206818309   -0.81930423806959    0.96764205052031
H         1.35438548961667   -0.26317812194673   -3.39987761545350
H         2.12656929408470   -1.93119567118638   -3.22278488087844
H         3.41439173706225   -0.17440380587111   -4.43194646451662
H         4.36207531499074   -1.19885228346907   -3.52859342424770
H         2.97988527370708    2.15718113991045   -2.81518367684571
H         4.45353999373116    2.46449574151316   -3.59557286458767
H         3.87639263587663    3.26227751573363   -0.85875825424097
H         5.48878564325834    3.18133680306581   -1.54914463713211
H         5.47711108445056    1.46431691115503    0.43193151529380
H         5.14609252275466   -0.77864871728339   -1.36764568719241
H         6.24561645815289    0.56183075852784   -1.85863723141094
H         0.16885243885665    0.21944642987423   -1.47776995880901
