33
 energy: -44.344407263664 gnorm: 0.127861947806 xtb: 6.4.1 (79825abcba525fcdf90b791dcacef51065a7a4e7)
C        -0.05741737627160    1.86128964679099    0.73342404419690
C         1.22821423304864    1.36117141113301    0.12690378606071
N         2.26885123620870    2.13034253281198    0.01898408084873
C         3.41186997684559    1.25475097573321   -0.36097613213964
C         3.78488182904356    0.18208942985263    0.70213241390730
N         3.36130041320393   -1.06904121754154   -0.04379777486857
C         2.25708258225972   -0.87369102098426   -0.70281509235711
C         2.25846035317167   -1.54573021534420   -2.07987211556099
C         3.55522596544759   -1.14193324149606   -2.89662135441960
N         4.22113468675956    0.19168915844521   -2.93931701506743
C         3.61386027881800    1.44371971076229   -3.41200459008950
C         3.96694841115121    2.54594586375335   -2.38681156180083
C         4.57481035817973    1.83531558468239   -1.17257584428001
C         5.13389255876643    0.53411244596283   -1.82898426486636
N         1.26422748341113    0.03827514730944   -0.31142625043802
H        -0.90509554967245    1.80056037352056    0.05943993597779
H         0.16941151180429    2.92754856821983    0.79239960048224
H        -0.33905550012857    1.49795455817232    1.73790220183781
H         3.00251952244152    0.69202573980769   -1.16513283972652
H         3.26601966216022    0.45908166666449    1.62933692552081
H         4.83179867941154    0.14681090207456    1.02128035681053
H         1.33848906439468   -1.24514710529342   -2.59633986504229
H         2.39499948389722   -2.63118178735518   -2.03525901958121
H         3.30469390685968   -1.40017759078538   -3.93718671336494
H         4.45661167557820   -1.67901029667939   -2.57476316426033
H         2.54024306912540    1.28563982812592   -3.56573920427693
H         4.01553689918452    1.61037944920788   -4.41759761367386
H         3.17639753096804    3.27604712815701   -2.19055325830820
H         4.76513856398765    3.10216755903605   -2.89566108073125
H         5.31126941508523    2.47856400648656   -0.68323121990805
H         5.30961688191932   -0.25414618950110   -1.09241862442834
H         6.07176778096734    0.76974757566131   -2.34539873506144
H         0.34568797208969   -0.26210987347589   -0.63814511728342
