33
 energy: -44.348380559444 gnorm: 0.112652338814 xtb: 6.4.1 (79825abcba525fcdf90b791dcacef51065a7a4e7)
C        -0.02622811259640    1.76628270488905    0.76380281984182
C         1.21898175234825    1.24080603354963    0.09734924771532
N         2.24701784542317    2.02166590618590    0.23733452098936
C         3.41353666838811    1.25218100319608   -0.27710592831364
C         3.62530416596665    0.04868376426912    0.68554110802749
N         3.14849520743598   -1.15973930387472   -0.09773907985782
C         2.13727276769837   -0.87449054614913   -0.86443643777467
C         2.18333293201233   -1.40333272169851   -2.30183999785802
C         3.52591723319318   -1.00936897307415   -3.04614658561451
N         4.25149569956512    0.27566409648172   -2.83159608423017
C         3.77276205827855    1.58869639935918   -3.28608096822392
C         4.28504246073494    2.59096666560023   -2.22607268463879
C         4.66754759706082    1.76598448452971   -0.99239763633437
C         5.26314239911084    0.56679307730155   -1.79475747450081
N         1.09304611978719    0.00158980695107   -0.52872426350851
H         0.18498348091512    1.96104061416645    1.80972821358833
H        -0.93258594234364    1.15771931100139    0.76570305858310
H        -0.33946655079064    2.71259855579374    0.28769696271075
H         3.00726476716497    0.82479338896510   -1.16207963385637
H         3.03541914024651    0.13743248473311    1.60739259758911
H         4.68676968316970   -0.09264346469028    0.91456608796779
H         1.37422070575373   -1.10173004477587   -2.97845623027519
H         2.13749791237245   -2.49722232516126   -2.31380033455658
H         3.27083075593885   -1.04515167706136   -4.11660592459470
H         4.24706469981823   -1.79680466693984   -2.79231198272527
H         2.67681759190274    1.57545211273480   -3.28328716718954
H         4.12589153436146    1.69716464942688   -4.31752224647411
H         3.44502199713801    3.26714073163976   -2.04252399212438
H         5.18688785358347    3.10183413088910   -2.58816002560142
H         5.35009965202368    2.39167778974637   -0.41082287485372
H         5.44508764681050   -0.36086393321068   -1.24602434702093
H         6.20501909360748    0.91669023585036   -2.23322983417812
H         0.24670451960364    0.02949106922888   -1.09759912980489
