33
 energy: -44.342420507826 gnorm: 0.108667398623 xtb: 6.4.1 (79825abcba525fcdf90b791dcacef51065a7a4e7)
C        -0.04329904117076    1.77733638947673    0.40696073443576
C         1.25767136621152    1.08966921641342    0.08227079162640
N         2.38830030306355    1.56135854000081    0.51283275262487
C         3.52235856506022    0.79089607616471   -0.06839146974076
C         3.29877140700563   -0.63611683272395    0.50917526069451
N         2.85145502781400   -1.44049683491651   -0.69666129934129
C         1.95851187029203   -0.80865859238210   -1.40036256002040
C         2.01256673654357   -0.70912843074784   -2.92846478413037
C         3.49732924020807   -0.36504336100388   -3.36299685180335
N         4.38914834243925    0.66794773014807   -2.76183620852486
C         4.02170068465381    2.08537204871137   -2.63658942455428
C         4.57831420923225    2.57982102455396   -1.28148940968736
C         4.90336306235814    1.32999734392581   -0.45617497743111
C         5.21048559549273    0.30150457459204   -1.58951203532492
N         1.03892571123885    0.12836072425051   -0.90338685752331
H         0.01122606401820    2.82073014263967    0.11565780529767
H        -0.40891585575465    1.62418486014066    1.42416596779128
H        -0.82555658375825    1.34125777148820   -0.23973654418132
H         3.16396548902639    0.67304249315857   -1.06265522988417
H         2.58789381588140   -0.51621838567843    1.33738311890285
H         4.17755369647669   -1.20753980932359    0.82595963057175
H         1.33122142945129    0.00589020866810   -3.40590924718181
H         1.80298575690519   -1.66456921236383   -3.42044759906755
H         3.30609326506632   -0.06504419456474   -4.40494791469736
H         4.06961854140683   -1.30049699941220   -3.31881436808033
H         2.93767575355255    2.24688870782139   -2.62765606322539
H         4.49152917179158    2.57788629679579   -3.49509266149274
H         3.89312520191449    3.28434402963169   -0.80117781592699
H         5.52496778295386    3.10580021959311   -1.46207406832754
H         5.66106865609799    1.46459721860378    0.32058993203956
H         5.04775196070819   -0.70804697532980   -1.20339925046823
H         6.27612929671750    0.18981491864709   -1.82134530174368
H         0.10421430577126    0.07642506190177   -1.30873666580138
