33
 energy: -44.345026761517 gnorm: 0.117448491293 xtb: 6.4.1 (79825abcba525fcdf90b791dcacef51065a7a4e7)
C        -0.01764527656117    1.87128956981264    0.58219542525622
C         1.29170992333452    1.35209974607534    0.04659800125187
N         2.31097376027839    2.14905097338092   -0.06370251067869
C         3.49246570056823    1.29824877378021   -0.37632780313449
C         3.76754185222482    0.28120217801491    0.76817633718377
N         3.29448955018711   -0.97254096889492    0.05718366258504
C         2.24149807938445   -0.84304441953834   -0.69528037702632
C         2.26232683100917   -1.54887556188635   -2.05516756314721
C         3.60842184928818   -1.19214104664928   -2.81180554653423
N         4.21421836174446    0.16886914357977   -2.87864775448200
C         3.39675548420764    1.33292568615214   -3.24813801800697
C         3.93646983429966    2.51510749921846   -2.41043339001759
C         4.64398396126971    1.83171052727305   -1.23516650528874
C         5.28983074305243    0.61477396246284   -1.96900698038670
N         1.19080304677199    0.01441379366865   -0.33274193657230
H        -0.10663386926489    2.91605978176878    0.30463976266991
H         0.05350084778088    1.82490491237573    1.67059987061429
H        -0.85522824007231    1.29196692013395    0.15423649925165
H         3.17311770906724    0.65235930853538   -1.15846535527780
H         3.28452629314662    0.58884823035711    1.70503316685811
H         4.77392651477040    0.02273758844707    1.11389419184547
H         1.38188280173799   -1.11471186597896   -2.54481693599968
H         2.16240595795500   -2.62920050424012   -1.90768127968656
H         3.56259936261660   -1.43297953451052   -3.88517865777416
H         4.28526003414338   -1.89779836293356   -2.31332939452173
H         2.33735313122657    1.08659499758436   -3.11298870284260
H         3.55628418574463    1.52930111963611   -4.31412309512622
H         3.11408742567012    3.14101546651871   -2.05201706553903
H         4.64704674926000    3.16725646381887   -2.93502856705321
H         5.31434858894422    2.48505411467023   -0.67005408349172
H         5.61584138432855   -0.17572110548247   -1.28812941480843
H         6.17628154440389    0.88993267719552   -2.55236827506321
H         0.39014061652067   -0.17974611876584   -0.93435045348896
