33
 energy: -44.347822330205 gnorm: 0.117023029754 xtb: 6.4.1 (79825abcba525fcdf90b791dcacef51065a7a4e7)
C        -0.11711650598131    1.70444625297635    0.55740930625022
C         1.21172644678924    1.16133582221835    0.09910683733065
N         2.32089370570426    1.71290630961886    0.48861191089667
C         3.40569887362636    0.87059748327292   -0.08691892814440
C         3.25448401037354   -0.55003896975066    0.52860241850746
N         2.86683901423132   -1.41187464225041   -0.65804478134036
C         1.99626296118193   -0.76538540148801   -1.37631457991510
C         2.12169690628284   -0.76064725494128   -2.90345846992194
C         3.59476296882944   -0.45997952434628   -3.40486412873971
N         4.43396688523526    0.55637115984761   -2.70731548676885
C         4.00870993524447    1.96130193736777   -2.77888562341815
C         4.58800256502661    2.53014352594771   -1.46304605910191
C         4.79891704772505    1.37017781678037   -0.48383487564811
C         5.28458175663270    0.31248122221279   -1.52401861831699
N         1.10146368767264    0.21439207996936   -0.91805801352588
H        -0.88399028063940    0.93753121050438    0.57312031771032
H        -0.54074565714770    2.33518305827644   -0.22652114997365
H         0.07059266570131    2.21776569811553    1.51739743436279
H         3.15279047625551    0.70338230851431   -1.10621864810243
H         2.44777793766531   -0.60989163478307    1.27109404724372
H         4.15777777231880   -0.90844522395526    1.03332036518185
H         1.42728801706767   -0.02391116168377   -3.32589488463528
H         1.81031294708413   -1.75475640153715   -3.24054214127133
H         3.54620313202585    0.02237794584785   -4.39340139621526
H         4.20422857500797   -1.37247970110383   -3.42573870517386
H         2.91317311736843    1.92892357124076   -2.77357385734455
H         4.38149315941848    2.38578098093150   -3.71760129443016
H         3.84283074135978    3.20876229125219   -1.03792090592513
H         5.48342728834855    3.14869659399910   -1.60804464155627
H         5.42710041432677    1.52170769665521    0.39822123351364
H         5.26949251516242   -0.74476584729851   -1.24696158872506
H         6.30394682148744    0.56079759369102   -1.84190474396013
H         0.15541489184704    0.03465558012453   -1.25477400557973
