33
 energy: -44.346403471949 gnorm: 0.115343876581 xtb: 6.4.1 (79825abcba525fcdf90b791dcacef51065a7a4e7)
C        -0.01961222176949    1.85523603789758    0.47024056510941
C         1.32510251612548    1.25239303968465    0.15534961722300
N         2.32540117250501    2.07996963425003    0.12859482461454
C         3.49237023155105    1.28866110918228   -0.35050454602062
C         3.76857369544347    0.20267006714222    0.72851144732183
N         3.44801825658696   -1.08978636767178    0.00190182935962
C         2.35757479611626   -0.88197647561145   -0.67597031620686
C         2.17095912863157   -1.45104189844862   -2.08638294044062
C         3.54438949692336   -1.12039609811301   -2.80478029398921
N         4.19276467998710    0.20981672536932   -2.98903424709671
C         3.47803612483416    1.45845774043478   -3.28879241796957
C         4.01077844252247    2.56613082329534   -2.35079432162448
C         4.66436937843785    1.82645032397987   -1.17838161244386
C         5.17391056542643    0.56439560704068   -1.94268534459311
N         1.27796636394289   -0.04584841884833   -0.35044876001553
H        -0.83197849707863    1.19671639602454    0.18229295425149
H        -0.18419582980046    2.68508917926497   -0.21975475500299
H        -0.06979159877293    2.24611622771526    1.50223063332827
H         3.00686692344096    0.80500127098729   -1.16368053713114
H         3.17671846802334    0.38361650885052    1.63549360151517
H         4.82249936390792    0.20963305551458    1.02571016741979
H         1.36304850244606   -0.89183684827861   -2.57424198903535
H         1.95980180839659   -2.52432337062979   -2.13452689932533
H         3.28138443939918   -1.47541643590285   -3.81325519445315
H         4.27616938602000   -1.80850113737160   -2.36256959300812
H         2.42178242230912    1.25958403797447   -3.07418845470085
H         3.54703828759642    1.79620880779914   -4.32874425331772
H         3.21883352444994    3.18971553096480   -1.92593995633585
H         4.65055212488908    3.33090376818757   -2.81039186493434
H         5.48811605861933    2.23436288321001   -0.58622674901853
H         5.29636198934242   -0.32541310128974   -1.31978425411852
H         6.11878545788049    0.82016098105154   -2.43625728528818
H         0.34710447287484   -0.38883232665578   -0.58824989601073
