33
 energy: -44.342367832732 gnorm: 0.126327219115 xtb: 6.4.1 (79825abcba525fcdf90b791dcacef51065a7a4e7)
C        -0.04267464288359    1.95115958661809    0.34485570353935
C         1.25531530849933    1.28620411631036   -0.03447265561461
N         2.31508255877084    2.03635071723221   -0.01524559401818
C         3.52314083101497    1.24720635871996   -0.38317024384119
C         3.75840432607615    0.24972259879023    0.78713639420057
N         3.39843428470629   -1.09689514640083    0.18863562340657
C         2.31683142801363   -0.92692905912166   -0.51351059679182
C         2.29738402486196   -1.49954047009715   -1.93465892059985
C         3.58694522007192   -1.13500565686417   -2.78075503557545
N         4.13912083919922    0.24486367730608   -2.90269244752545
C         3.35585906480636    1.43349123294941   -3.26801663764057
C         3.98748500675382    2.57637485392092   -2.44009142584237
C         4.63004577321614    1.86370543225228   -1.24506930877447
C         5.22903475860879    0.62349143074963   -1.97968209255613
N         1.23922862591117   -0.10276645332285   -0.15273787566226
H         0.08246812954379    2.97546370266117    0.67898332909862
H        -0.54845846271985    1.53456897505353    1.21805242948402
H        -0.63726628142750    2.07674347021769   -0.57763996794384
H         3.17281595649069    0.62110477427828   -1.16813188407454
H         3.08432868844015    0.47278860369597    1.62470098303480
H         4.79093453061075    0.17761982726082    1.14465203991775
H         1.48322300988751   -0.98775920740662   -2.46253967560509
H         2.22632282524637   -2.57844114014123   -2.10717560662516
H         3.39957147661459   -1.58348753695727   -3.76867598196633
H         4.38860429834941   -1.81543610792241   -2.46627488337131
H         2.29083197371698    1.20833971860477   -3.14033900308338
H         3.46166963348042    1.55821184518992   -4.35133828495445
H         3.27134172789817    3.32201804490089   -2.08275278508893
H         4.82578776260899    3.01234528984559   -2.99919444948395
H         5.31165512979532    2.49523353608155   -0.66871909999051
H         5.50694021879909   -0.23793473216225   -1.36692343603595
H         6.07583720251693    0.90790178521355   -2.61517726735663
H         0.44196676163893   -0.48927076429228   -0.65838513266884
