33
 energy: -44.341673030763 gnorm: 0.120773095000 xtb: 6.4.1 (79825abcba525fcdf90b791dcacef51065a7a4e7)
C        -0.04876359344870    1.85293536377074    0.47237943668889
C         1.21959304362136    1.20991714067618   -0.02625141373889
N         2.33683413869450    1.64891529945451    0.46897500221015
C         3.40750616545715    0.75294841511867   -0.04912434179622
C         3.29767615955070   -0.66866923511607    0.57287327536973
N         2.73094695102084   -1.54946350247467   -0.52447827318564
C         1.98857797907259   -0.81993980464539   -1.30450777162432
C         2.18646116892211   -0.97228144283996   -2.81631426864566
C         3.54985085684803   -0.37657695836365   -3.36224199257412
N         4.41334070891964    0.68224364267917   -2.76467170619099
C         3.97587436821078    2.08488357072398   -2.73272357875269
C         4.45116854023244    2.56155350302406   -1.34079121970671
C         4.75953287268415    1.34239322556466   -0.46476634951047
C         5.25704667609292    0.38125121379170   -1.58960436965614
N         1.09274844422899    0.21564306047951   -0.99517566838578
H        -0.78930767147170    1.09817675106588    0.71411238219306
H        -0.48568638766777    2.62882253041302   -0.15923366818387
H         0.30008784288157    2.32099476503096    1.41021304452428
H         3.05310725340166    0.57299096353691   -1.03548747034192
H         2.58630368437455   -0.65110480378856    1.40910981219650
H         4.31858004381374   -1.04985446090736    0.68052066725533
H         1.43934343780800   -0.48807097781080   -3.45724455485077
H         2.13203662665833   -2.04293216047799   -3.03898753616515
H         3.20862407517786   -0.02113029357609   -4.34685088464796
H         4.25699509260332   -1.17126515964437   -3.63235000973244
H         2.90835527407001    2.06400818634521   -2.98020023500350
H         4.53636331343461    2.61121354289573   -3.51321432589580
H         3.73692352237208    3.20343907513738   -0.81698511055611
H         5.38869125824958    3.11995647352748   -1.46184989403753
H         5.50859368326081    1.58037224874502    0.29541291785304
H         5.23505396620532   -0.68665392905582   -1.35753847094176
H         6.29549849163007    0.47865115347287   -1.92716743712330
H         0.37221206745641    0.36254643985736   -1.70223856100371
