33
 energy: -44.343114409991 gnorm: 0.126225500029 xtb: 6.4.1 (79825abcba525fcdf90b791dcacef51065a7a4e7)
C         0.01532607392452    1.99008677587514    0.43119568192554
C         1.34031002404597    1.32726640416400    0.15565913357122
N         2.35081529730140    2.14278619782900    0.15732825660599
C         3.50132405216667    1.33073034070760   -0.32683809492898
C         3.79236187080461    0.23310425119286    0.73639017523549
N         3.38450599123930   -1.06247234303830    0.06089345239247
C         2.35057935097750   -0.80481072097035   -0.68500781766352
C         2.28567750705925   -1.48291388365089   -2.05755596714441
C         3.61389746015489   -1.22284138754023   -2.88213246189383
N         4.27375986019442    0.11399044349162   -2.91774577249641
C         3.39039677142100    1.25023676818166   -3.21508429205464
C         3.85381972727066    2.48668155505539   -2.41069762045422
C         4.61292114341745    1.89487489757453   -1.21805776167131
C         5.19520388781836    0.60206663569349   -1.87087329636883
N         1.27833556839042    0.00220451727668   -0.27312383972818
H         0.20398222702719    2.98457189980925    0.82095086633066
H        -0.49889541092968    1.32298691521036    1.12573983525635
H        -0.51497927612075    2.10253325283852   -0.53132227795325
H         2.97553312918820    0.84610850542557   -1.11397281961160
H         3.07122827233403    0.53434696416416    1.50766834513456
H         4.80921265736806    0.13389062933954    1.13047900232947
H         1.37462178884255   -1.20473532928680   -2.60164278599865
H         2.20971470917176   -2.57500129723606   -2.07788058914369
H         3.38962551336174   -1.45374781413122   -3.93504130436434
H         4.48207924216545   -1.83058409662045   -2.59673828085190
H         2.33085550088801    1.04319515312242   -3.02591886624772
H         3.37894919657788    1.36654251678971   -4.30443218378612
H         3.01878409667834    3.14693993867132   -2.15908237129458
H         4.55130047917910    3.07642806376275   -3.01990824144429
H         5.28533958160969    2.64223737936071   -0.78805614332005
H         5.23193015070269   -0.23709128242418   -1.17142721164970
H         6.12573211859465    0.83019665896559   -2.40368813408789
H         0.35652110086202   -0.26497479728620   -0.61890483092027
