33
 energy: -44.343914135552 gnorm: 0.120786221062 xtb: 6.4.1 (79825abcba525fcdf90b791dcacef51065a7a4e7)
C        -0.05475116465740    1.89809985549446    0.41180986160829
C         1.23502027594020    1.18047889949941    0.10792912682770
N         2.34573313729542    1.60164413690075    0.63246036228359
C         3.40961748142857    0.79017183602876   -0.02113353383040
C         3.40333806476963   -0.67001771992402    0.51528741707252
N         2.86894819636832   -1.40869969621047   -0.69712231238527
C         2.00788985978889   -0.75897847048863   -1.42389834184946
C         2.13135904726164   -0.83581381935270   -2.94927577045053
C         3.64222596210800   -0.54697240872781   -3.33083071705281
N         4.38526709807222    0.59371652142540   -2.72212332425734
C         3.79848440041540    1.94105328300288   -2.70924023690533
C         4.36568622494180    2.52386443046412   -1.39424680456391
C         4.75704541407655    1.36369910327656   -0.47244730544039
C         5.29817274469459    0.40175995150962   -1.57627193240582
N         1.17611526914721    0.26318761511939   -0.94020807036088
H        -0.83747223370270    1.17571928694663    0.61678535350102
H        -0.25593933709818    2.67141444973925   -0.33206203282537
H         0.09395505795078    2.45409122864614    1.35471433722634
H         3.08467950114528    0.66580018572854   -1.02604273187368
H         2.82248949900911   -0.71406484673348    1.44605357621527
H         4.36002083574598   -1.11616508911258    0.80656987897930
H         1.50368240808784   -0.09328205408102   -3.45731604981226
H         1.77660629117044   -1.83003053773163   -3.24000240011989
H         3.61105167152330   -0.50143169285044   -4.43046107662265
H         4.23941441552862   -1.38462215608151   -2.94840489626645
H         2.70845286185474    1.82700913756192   -2.71937302340873
H         4.09302531555387    2.53233807780182   -3.58329106248550
H         3.51001905953636    3.08027917622647   -1.00083581426940
H         5.30946403672745    3.04494971002975   -1.60202433211217
H         5.46919796146403    1.49487000604653    0.34683993230542
H         5.27561694500564   -0.66826485352771   -1.35424083168285
H         6.25663788571245    0.82096785557512   -1.90403260411740
H         0.42430060786645    0.47008325748341   -1.59797711198641
