33
 energy: -44.338614526101 gnorm: 0.134180398757 xtb: 6.4.1 (79825abcba525fcdf90b791dcacef51065a7a4e7)
C        -0.02216908959164    1.92726993610589    0.26560876828152
C         1.29253978347042    1.24095149847297   -0.00148913225665
N         2.43812809616525    1.63555464678092    0.46553550402809
C         3.40113524655289    0.65510616320462   -0.10792781567123
C         3.32774524400250   -0.79654336071839    0.44638976338165
N         2.91099078933681   -1.56926013842581   -0.79069773212027
C         2.00183635803283   -0.82831788366846   -1.35301910403498
C         1.98819779561961   -0.74733667526782   -2.88311082057364
C         3.43033328623869   -0.27175992291628   -3.33676746159546
N         4.37061584698271    0.69518073293876   -2.70060669672024
C         3.98345755450260    2.10477866808153   -2.54915250831158
C         4.55158203256581    2.54647292042889   -1.18067334050022
C         4.78302537170022    1.25469589369938   -0.38908884532045
C         5.24997646987279    0.34270692669937   -1.56671668353107
N         1.12597645433708    0.14490744252579   -0.84672802309627
H        -0.22930507312244    2.75585711983821   -0.40300088612735
H        -0.16261825618640    2.28766316119918    1.28650459524955
H        -0.76503743626989    1.13381136957146    0.06843138143559
H         3.10506440399684    0.53252004446409   -1.12193481416964
H         2.59640481366126   -0.92954431393557    1.25453750699899
H         4.25058334030596   -1.26716505658756    0.80138264228807
H         1.22084441653873   -0.06780797624489   -3.27406586975200
H         1.81826661962971   -1.74797443210186   -3.29382465007118
H         3.25789181662004    0.12807796188025   -4.34801734515040
H         3.98645619666640   -1.21717021350017   -3.37507344096003
H         2.91933362786189    2.21033673489827   -2.78951734837213
H         4.51012829754568    2.64232651574380   -3.34539188525065
H         4.01446247949563    3.38498666773390   -0.72797790888588
H         5.54620955362275    2.89370883920194   -1.48980315018638
H         5.52860624598930    1.42446526508159    0.39250321903899
H         5.19956576897072   -0.68523492119656   -1.19854013116614
H         6.24038424801000    0.61560690422559   -1.94938597297707
H         0.18338083021644   -0.08484673068323   -1.16203377066558
