33
 energy: -44.339359434850 gnorm: 0.132970721719 xtb: 6.4.1 (79825abcba525fcdf90b791dcacef51065a7a4e7)
C        -0.07000668307850    1.85110611252748    0.46668294445106
C         1.20100392046923    1.14784014397446    0.06570572897897
N         2.36462849825600    1.63395229326159    0.37533301550478
C         3.42837000861363    0.72569187318839   -0.13558691618217
C         3.27348063916544   -0.64456263832480    0.58437992882657
N         2.87959712229866   -1.47427518524197   -0.62292857361976
C         1.93915393675669   -0.87674103478684   -1.29395918369003
C         2.10576063599670   -0.87748792666388   -2.81716837897937
C         3.50832264671005   -0.40486605039865   -3.38389644032838
N         4.40966125649120    0.60818614833154   -2.76331609843013
C         4.04230027413297    2.03106133204680   -2.74693465827648
C         4.56575209916878    2.57155118201994   -1.39620768151119
C         4.78106003646722    1.34490918961120   -0.50298216626275
C         5.34464687617896    0.42789918570730   -1.63348517020514
N         1.05273916849011    0.12644352007658   -0.87144484246180
H        -0.92116031361751    1.21659746693001    0.68902767511258
H        -0.45047172664115    2.44780467955562   -0.36460203058887
H         0.21514128441852    2.49649809882294    1.31666448492885
H         3.05275553860337    0.53134251297984   -1.11131105106987
H         2.43971928317532   -0.52086748538711    1.28807898537160
H         4.17304685652763   -1.13799673545968    0.96705248493106
H         1.38295892051001   -0.16715413682843   -3.23719206498658
H         1.89373814110044   -1.85832128079733   -3.25517609399368
H         3.38343028973008   -0.25273607911285   -4.46717437006998
H         4.21048308804521   -1.24837451729330   -3.38169968207526
H         2.95601720531760    2.17170584172945   -2.78547947234241
H         4.46064842133093    2.65196943583123   -3.54680642918086
H         3.79402130252522    3.22184884894586   -0.97421195605364
H         5.43527193536605    3.21458073453402   -1.58559133787166
H         5.46820607206835    1.54263480951793    0.32426237525951
H         5.33744528883264   -0.57379351984347   -1.19608431552280
H         6.37848464731557    0.78081157726599   -1.72540929391467
H         0.10100894037046   -0.06942574114213   -1.18214728653197
