33
 energy: -44.342331059699 gnorm: 0.124231808011 xtb: 6.4.1 (79825abcba525fcdf90b791dcacef51065a7a4e7)
C         0.02008766185541    1.97216079714089    0.40752239592856
C         1.34315648089247    1.30893739829585    0.12387238161637
N         2.37587013789110    2.06795942764541    0.33264090185038
C         3.53922994373463    1.34389085165613   -0.25031777878053
C         3.84857250934564    0.19316867774141    0.74972524905511
N         3.43294494046002   -1.06026852112950    0.00319335798238
C         2.35645161321124   -0.85595391408460   -0.69764912817752
C         2.24192649734263   -1.50053101695388   -2.08304762238168
C         3.57416771696198   -1.13716289097331   -2.86075535619230
N         4.19959621010950    0.20887239728626   -3.00509615156345
C         3.27554387301371    1.34157457976184   -3.15645435980240
C         3.88016981482731    2.53471408397346   -2.38092869061962
C         4.61149273408664    1.85106707421741   -1.22047469993510
C         5.10311317534038    0.52408039163708   -1.87925403306052
N         1.30866548993910    0.05222511897605   -0.47859695926052
H        -0.22045590701658    2.42766644509399   -0.54702163805289
H         0.14680503243601    2.64726827330599    1.25605651043271
H        -0.81821018771124    1.26697167508633    0.54990852504860
H         3.06220260770451    0.84370607052383   -1.05849820509114
H         3.28733385271327    0.29686825393263    1.68775958611953
H         4.93961288485253    0.17483540236962    0.84153846103427
H         1.31526163164303   -1.16828500853517   -2.56713556336780
H         2.25100037902249   -2.59518440114199   -2.06091145218091
H         3.41027402634624   -1.45620863639770   -3.90170751444556
H         4.33463045807181   -1.70827740151279   -2.31297319513413
H         2.24589565238667    1.10196344117646   -2.86716464365272
H         3.33212444108670    1.51541032856268   -4.23669353679068
H         3.05756902532694    3.18903121814984   -2.07805429247825
H         4.57201042144728    3.05878268505818   -3.05333229083221
H         5.42512042537912    2.49676343823126   -0.87888311254666
H         5.34594110449139   -0.28045458875191   -1.18031360741339
H         6.06865213600646    0.81901233130607   -2.30653311982548
H         0.39604853514701   -0.33344261713530   -0.72166462721840
