33
 energy: -44.349156898044 gnorm: 0.115546499967 xtb: 6.4.1 (79825abcba525fcdf90b791dcacef51065a7a4e7)
C        -0.02612722310926    1.77579501934744    0.70158236184933
C         1.27704509153557    1.38133147602403    0.05584702211080
N         2.31461532332713    2.16210998020541    0.05044648428777
C         3.43017719109920    1.32183792114690   -0.46626113044472
C         3.73500382961809    0.29305396296532    0.66007127856975
N         3.26889714551119   -1.00580427497519    0.03009287891918
C         2.22475369337167   -0.86635986852339   -0.73285025786800
C         2.20230904356792   -1.58936840654884   -2.08365723467632
C         3.60260441481690   -1.21627456816611   -2.72530061319887
N         4.19921019543104    0.14393316985424   -2.85835133253165
C         3.52102135946266    1.36564895238443   -3.31361685635335
C         4.06733660458989    2.56226290512419   -2.50105967929858
C         4.62272215065938    1.90034576134616   -1.23525064783493
C         5.21449039212994    0.61463972921721   -1.89354000036431
N         1.22832047933679    0.06653118809789   -0.40503343149572
H        -0.04125258260297    2.82765444015770    0.96590014095635
H        -0.20701922438484    1.20493379109196    1.61439837695053
H        -0.90247903450005    1.63083337172528    0.04484618036502
H         2.97915182153710    0.77673821946697   -1.26019936605440
H         3.28134248461780    0.55790691069719    1.62427828335547
H         4.80327072628103    0.24250223828062    0.89541195396195
H         1.36161702045071   -1.13597392042603   -2.62320025781421
H         2.04866692030121   -2.66997384557313   -1.99691423479407
H         3.53566711127166   -1.69145218435815   -3.71623872867444
H         4.37618045374122   -1.67485564155956   -2.09615502839346
H         2.42620345706976    1.32172893715022   -3.28674153289400
H         3.90767042083379    1.42243630600848   -4.33714731779214
H         3.28122352619282    3.30846809905347   -2.35361508628972
H         4.94374555266125    3.00734028749842   -2.99017255470697
H         5.21950656388322    2.52792168074726   -0.56772127532234
H         5.48932054605738   -0.10098066541490   -1.11436383855510
H         6.14922534876641    0.73402855512805   -2.45374944024924
H         0.33892459397753   -0.23674150521624   -0.80213773744817
