33
 energy: -44.352980681395 gnorm: 0.119064376409 xtb: 6.4.1 (79825abcba525fcdf90b791dcacef51065a7a4e7)
C        -0.04963019813673    1.81582519857072    0.49725987957341
C         1.26038795061532    1.17388662596015    0.11963440058748
N         2.34488489893817    1.82025122684556    0.42340303367225
C         3.43025414071506    1.00682299605572   -0.19127597606475
C         3.47523070708731   -0.34112092544180    0.58394314897930
N         3.05908437328539   -1.37034660863140   -0.44982552663675
C         2.03697576266170   -0.91203820978185   -1.11089278172340
C         2.05449203289675   -1.09277370704322   -2.63238956236523
C         3.50319062720155   -0.74590521583489   -3.17339509069546
N         4.28596525836828    0.45399883654120   -2.75951084490061
C         3.82686877982016    1.84201383402814   -2.90931415428294
C         4.48802752310576    2.67958563184971   -1.79041422204747
C         4.73555099572672    1.60942015863544   -0.72161213757694
C         5.27995969289296    0.49294348326562   -1.66695520876378
N         1.09745748644340    0.02548134224682   -0.65373719401511
H         0.07956851623490    2.53214201222289    1.30143574138832
H        -0.80591846322403    1.09353629040657    0.81057174248127
H        -0.46476331853467    2.40399714568856   -0.34061066083728
H         3.02687802412759    0.74482968992219   -1.13971822849734
H         2.85018489929569   -0.30855552668163    1.48611169243388
H         4.47692019916101   -0.73153949386853    0.79209304369866
H         1.30901367071780   -0.45886451218707   -3.12822970667174
H         1.79106504252695   -2.11608145370970   -2.91924464536092
H         3.28446555145882   -0.72689672504743   -4.25229765019038
H         4.14081049794647   -1.61567389429747   -2.96971888657134
H         2.73176753573658    1.86375177288032   -2.94878840226236
H         4.19237341430853    2.23647145416885   -3.86385406892038
H         3.95501015480252    3.58879565910835   -1.49755678453670
H         5.43375360220347    3.15321805902765   -2.08485000449343
H         5.47101529077296    1.87813490649911    0.04159378560933
H         5.34616810062476   -0.52938868351567   -1.28588692177574
H         6.24359938109523    0.81120206462744   -2.08159694807602
H         0.20183674531468   -0.19218499093916   -1.09097402679147
