33
 energy: -44.345969294724 gnorm: 0.120605086572 xtb: 6.4.1 (79825abcba525fcdf90b791dcacef51065a7a4e7)
C        -0.06868948076328    1.84513773730616    0.66315242762317
C         1.25428097103330    1.40761254787283    0.08943245031980
N         2.34819840160261    2.10714078365679    0.07524974436446
C         3.49627909805408    1.24717631524084   -0.32461773036794
C         3.76155207645529    0.07618156517508    0.66449396479899
N         3.24859167254632   -1.12577267826615   -0.10579077450383
C         2.21776251659379   -0.78397235897584   -0.82156052923617
C         2.17281542477868   -1.50004259350984   -2.17549841856066
C         3.56337600206665   -1.14462998133223   -2.84762603858786
N         4.17854776789860    0.21235214271633   -2.78462391388616
C         3.54002647640036    1.45380467032916   -3.24384329203944
C         4.04511828626765    2.58472784602768   -2.31837611189401
C         4.65908669584229    1.83645841388121   -1.13010191651289
C         5.27507200959612    0.61323141397579   -1.87900266214315
N         1.21281996035449    0.12750052673307   -0.46109358141095
H        -0.00566710549144    2.01035396263550    1.73330787959294
H        -0.65737533210067    0.93583453223361    0.52730619567926
H        -0.46954072018585    2.72638344620302    0.13114389390272
H         3.03038946759311    0.68184056195511   -1.09548596359000
H         3.22593570610149    0.19412026285892    1.61573337685924
H         4.83429408612150    0.02202283807391    0.87762839994422
H         1.28743581497260   -1.07260727285201   -2.66215878386709
H         2.08687085562567   -2.59047617433971   -2.12644221833298
H         3.50473267956827   -1.40882846540634   -3.91486211583098
H         4.34849600376822   -1.80589823177798   -2.45922992530505
H         2.46151200152243    1.28320128511324   -3.14908830629442
H         3.75848606361205    1.61612367594931   -4.30509955390491
H         3.20802729673298    3.20835218590932   -1.99140939980154
H         4.85073079310872    3.16010635953691   -2.79308231661993
H         5.49231113822751    2.31604002334875   -0.60920159971978
H         5.48860410707324   -0.13186045150275   -1.10828753237841
H         6.13963768446005    0.91030151998053   -2.48405910207942
H         0.35006992432692   -0.12156321725772   -0.94516056053912
