33
 energy: -44.343690084845 gnorm: 0.127516620388 xtb: 6.4.1 (79825abcba525fcdf90b791dcacef51065a7a4e7)
C        -0.04050409363325    1.98867517571144    0.37059756233240
C         1.26959189116030    1.31906888508296    0.04485282747098
N         2.34190190941645    2.03685944359067    0.19019440776942
C         3.47387121372184    1.17728569971056   -0.25399096022738
C         3.80459782765845   -0.06072114109123    0.62799507852714
N         3.30084143443759   -1.24918880145256   -0.16883305508314
C         2.20955174255532   -0.88294198476220   -0.77440106315142
C         2.19127693529036   -1.35812322510240   -2.23103878231469
C         3.55568702104130   -1.06456142394922   -2.98199747555723
N         4.15337014453581    0.29225738419328   -2.82192355152066
C         3.41883500697497    1.54407468840766   -3.05259176266294
C         4.13555698464269    2.58490836101803   -2.16176667246972
C         4.68383931810171    1.75631729361067   -0.99485483299341
C         5.22442112037685    0.56047618315382   -1.84002338474518
N         1.18410291973357    0.00551178316929   -0.41421586732765
H        -0.76466061322132    1.21117661067104    0.58875857687528
H        -0.34859785268900    2.54662718258632   -0.51574623891189
H         0.02016944902675    2.60761539108940    1.28358196770518
H         3.06832019793304    0.67406480708757   -1.09849827290921
H         3.34233668219391   -0.05528132473115    1.62395486292718
H         4.88160587155914   -0.21531660999238    0.75164292760277
H         1.38425697532403   -0.82073321593581   -2.74423180743713
H         1.93043446552569   -2.42139682137226   -2.21526403168300
H         3.48830264329422   -1.14678497481458   -4.07786761054940
H         4.33396793544966   -1.71462965960256   -2.56219899722657
H         2.36519305081372    1.54268592671381   -2.75074048571063
H         3.44573739690979    1.72913610937274   -4.13211269158260
H         3.34092756788651    3.26298867455801   -1.83725619164359
H         4.92449012873225    3.08697275321421   -2.73703510195207
H         5.40160735078630    2.20847746096873   -0.30495711034552
H         5.72634869080805   -0.22907383316399   -1.27483391259158
H         6.09378372692362    0.97725604179681   -2.36186719129784
H         0.29837335102940   -0.27083681250341   -0.83825099604133
