33
 energy: -44.340426078039 gnorm: 0.126794954373 xtb: 6.4.1 (79825abcba525fcdf90b791dcacef51065a7a4e7)
C        -0.08890303644573    1.92447714910056    0.59043762590206
C         1.20237114837646    1.36382870304507    0.05274067698855
N         2.28617751053724    2.07640725977419    0.11431839022223
C         3.46271294271489    1.31255637266464   -0.38549994117926
C         3.85750423414291    0.27595933875192    0.70516354222763
N         3.41904840852473   -1.00600961743091    0.02290769110411
C         2.33199570379539   -0.76217604200701   -0.64837775294626
C         2.34579078287552   -1.55167837888733   -1.96154962946286
C         3.63671681753331   -1.17731876104351   -2.80125030350835
N         4.17718695753651    0.20608139219168   -2.93504902289989
C         3.38998139572841    1.37393747471505   -3.35482971376478
C         3.97713523853689    2.51016823509114   -2.48602335387074
C         4.60406678230990    1.87024944423511   -1.24251191667133
C         5.15963083710675    0.56352791940842   -1.89089603511969
N         1.21368824100213    0.02112806525921   -0.32210813227527
H         0.08260562896417    2.88478562925429    1.06466680249311
H        -0.61214188377544    1.35638069438412    1.36201073309246
H        -0.75276453343008    2.24737283248571   -0.23135011041738
H         3.01414622557244    0.64596907280911   -1.08216683763137
H         3.33253145354574    0.37656236469478    1.66429516219632
H         4.92101769385686    0.16359858942208    0.94063977790615
H         1.53408750790200   -1.39298639503953   -2.68223746637062
H         2.39567652356725   -2.62562035632008   -1.75418902891396
H         3.31520250901645   -1.60266468375701   -3.76454782677881
H         4.49528766671873   -1.78592901514120   -2.48981763132934
H         2.31661314426790    1.16500456665170   -3.28063314908456
H         3.50067897023602    1.61131095803439   -4.41866089397064
H         3.20149746515445    3.25076808474268   -2.27053836722528
H         4.86663810452633    2.88722654882339   -3.00758792954625
H         5.33616282569357    2.41049929325251   -0.63607633338360
H         5.24904024304706   -0.29496688009586   -1.22026029509684
H         6.12487270454213    0.71792222379667   -2.38717044089620
H         0.34894853445125   -0.20281898671281   -0.81481917251345
