33
 energy: -44.345058408701 gnorm: 0.119464700633 xtb: 6.4.1 (79825abcba525fcdf90b791dcacef51065a7a4e7)
C        -0.07277717324074    1.94411818886567    0.49915864490306
C         1.22714172171381    1.32636180340054    0.05259216082541
N         2.30795476781096    2.04475488247478    0.00842444934940
C         3.49353028281650    1.24255707300745   -0.40195529467759
C         3.81830979265598    0.19940797673679    0.70542839462892
N         3.36474347817016   -1.10126066908399    0.07005478190130
C         2.26863132568523   -0.88579508892627   -0.59618486605092
C         2.19257258954718   -1.53877361088549   -1.98029423896055
C         3.52584155548172   -1.11836609312566   -2.72687562321105
N         4.23859253963557    0.17887274584663   -2.90843410476050
C         3.45764070087145    1.36446233107312   -3.28828646831193
C         3.99654303885588    2.52075336826704   -2.41469058066181
C         4.65069878234461    1.85106421333653   -1.20124234817871
C         5.27146927638601    0.63284302795169   -1.95433972594007
N         1.20556777547428    0.01254975046996   -0.41315150443084
H         0.23180684958476    2.92579388542258    0.84562987848868
H        -0.50693094917007    1.31540407662930    1.27894490070810
H        -0.78449945553830    1.88754360847059   -0.34378827330080
H         3.13484783131221    0.63307813740419   -1.19617051536038
H         3.35519661366087    0.61799088960412    1.60873641497529
H         4.85811720438920    0.24853308629285    1.04531387751308
H         1.36358802175082   -1.13158225011901   -2.57225378132999
H         2.26507696258780   -2.63122996937066   -1.99127599678488
H         3.35872717966340   -1.44505244088694   -3.76494187336753
H         4.34439454461494   -1.66932293945190   -2.24629449812709
H         2.39572869951815    1.21036739156727   -3.06495902738446
H         3.49781180057938    1.54604815181272   -4.36798539686268
H         3.24091376576404    3.28230955046522   -2.20116668238078
H         4.70349979836229    3.03801594185779   -3.07655876675768
H         5.32570107103992    2.49293464544523   -0.62855317594283
H         5.62250532065633   -0.12539451238962   -1.24963469345656
H         6.08940083372159    1.02564799344604   -2.56957137070358
H         0.24986430536236   -0.34384432370884   -0.43062570400528
