33
 energy: -44.342180448360 gnorm: 0.136735383510 xtb: 6.4.1 (79825abcba525fcdf90b791dcacef51065a7a4e7)
C        -0.01662886558798    1.76547357649850    0.69756319925165
C         1.20447521330647    1.17247143332995    0.04327962201592
N         2.29603790174266    1.63965378939348    0.56904362621608
C         3.36410056218213    0.85478236648900   -0.10973556067340
C         3.28657876203440   -0.59382112074107    0.45193936578057
N         2.90236658118865   -1.32592410694058   -0.81989677826047
C         1.93404478359553   -0.72578604393392   -1.44755093644721
C         2.17601955506074   -0.76380451159628   -2.96014058331995
C         3.70567262155623   -0.58992446286296   -3.33651752530239
N         4.47880051565044    0.51059098173132   -2.69235522233628
C         4.00085902828573    1.89948010468321   -2.74088558641383
C         4.41229117694200    2.60550652774102   -1.42831378061572
C         4.73069590514107    1.42343746216126   -0.50625571837703
C         5.26326537027562    0.30589552226252   -1.45706816370149
N         1.03396403316472    0.24741854876875   -0.98564593024350
H        -0.48211867927816    0.99918087341766    1.30798570733141
H        -0.76670102174715    2.10665511746748   -0.01855442785645
H         0.32718501002151    2.63976017406002    1.27870325247980
H         2.98016059388317    0.72070952374680   -1.09233928017614
H         2.50334484846729   -0.72812117812036    1.20967215889418
H         4.20702755418121   -0.94144000106872    0.93263678650792
H         1.55962855622321    0.01677993227249   -3.42294332916914
H         1.83489516309040   -1.72347597913075   -3.36201519310002
H         3.57064198588504   -0.45814139367082   -4.42124452979844
H         4.27501524596912   -1.50955719571413   -3.15033141436289
H         2.91597809018242    1.90688942014647   -2.89662879539182
H         4.38530521587810    2.33973474383019   -3.66755375072274
H         3.67187696744193    3.26666435551878   -0.96875638678278
H         5.22931578414474    3.30588283528977   -1.64594131661146
H         5.48606752711178    1.65413566018837    0.24991270814988
H         5.32343478674362   -0.75816476173052   -1.21434402188390
H         6.27267839535347    0.68439505266336   -1.65616914739416
H         0.17666885267388    0.13184418890884   -1.52636650686412
