33
 energy: -44.348431653982 gnorm: 0.120518391206 xtb: 6.4.1 (79825abcba525fcdf90b791dcacef51065a7a4e7)
C        -0.04383582550049    1.77424436630105    0.49967274817212
C         1.26545481641645    1.21604954595777    0.00468761744373
N         2.37340434757115    1.66766563368955    0.50935284360296
C         3.42465552422301    0.80296771083472   -0.09454338220378
C         3.25835855845312   -0.57950941674596    0.59902905652352
N         2.86778701810470   -1.42556490439685   -0.59796924932594
C         2.00632986051916   -0.80986325852995   -1.35332717284107
C         2.13981925222406   -0.84458662188550   -2.87940039912749
C         3.61178641590621   -0.54133779187772   -3.38247612130659
N         4.40759105419174    0.55942125482838   -2.76698400256310
C         3.97779973717598    1.96452109831541   -2.79473480354470
C         4.38669705941521    2.57596896391336   -1.43476092341128
C         4.76675660902060    1.41697483670210   -0.50678071251781
C         5.25647636269138    0.38465206129800   -1.57029318410100
N         1.10872504109716    0.17258125794837   -0.90640755691665
H        -0.73194345182500    0.99140180049055    0.79994982588857
H        -0.57229380162530    2.38282623329170   -0.23666808217780
H         0.12602608175741    2.28034166302870    1.46679283278868
H         3.09479219957171    0.68588331145209   -1.09872311049824
H         2.57693064065524   -0.54398844326842    1.45928780031357
H         4.20219135825150   -1.03685203385133    0.91391356788621
H         1.59730791242301    0.03515359523732   -3.24706181729756
H         1.82659966495734   -1.79022235954351   -3.33382851625317
H         3.50705970834361   -0.18289059946891   -4.41822736965803
H         4.20961670741331   -1.46173855057847   -3.38390268991309
H         2.89481480177836    2.12091710992766   -2.85767454048859
H         4.49837987966156    2.38272519398844   -3.66331902753819
H         3.63563415267839    3.12798324672649   -0.86229204621034
H         5.30765416316179    3.15790065704561   -1.57118469375797
H         5.40796345874203    1.72232363945064    0.32461240769719
H         5.17968101082316   -0.61583174440254   -1.13682544050631
H         6.28675776586729    0.50061767629551   -1.92650934741477
H         0.29422742102746    0.21994146955428   -1.51881416026647
