33
 energy: -44.350014815432 gnorm: 0.124374003767 xtb: 6.4.1 (79825abcba525fcdf90b791dcacef51065a7a4e7)
C        -0.00208074396967    1.95675403363192    0.67625926291931
C         1.25900967758081    1.29283751833211    0.18666807717996
N         2.29991187639666    2.06275849789313    0.08696579294631
C         3.43118806213138    1.26283748334294   -0.45880223395963
C         3.78854725026332    0.20148624230062    0.62090530191283
N         3.32396896412941   -1.07594649162299   -0.05251402083861
C         2.17797115059740   -0.92673523407975   -0.64932852890815
C         2.22684983006502   -1.54552602466253   -2.05026873130876
C         3.60996521078253   -1.18449907055145   -2.73465439797518
N         4.25218974326846    0.16077189861682   -2.77465072801990
C         3.59494568574279    1.31890398047933   -3.39638747056336
C         3.89949985832978    2.53842346145740   -2.49604672659133
C         4.55815131320466    1.93369046966855   -1.25132339000421
C         5.29137571812761    0.70573848866576   -1.87669562338751
N         1.17361411736128   -0.00120332911121   -0.32484984967191
H         0.02803219107858    2.95732936588728    0.25859536250321
H         0.03335830456340    1.95124481621149    1.76738311765633
H        -0.88108392893047    1.47693211931275    0.20996200989196
H         2.91663250365029    0.81875761062520   -1.27667822580497
H         3.34406518962439    0.39405256484225    1.60630103980146
H         4.84386801846022    0.00902172229555    0.84088339305831
H         1.34254748760604   -1.17926180675782   -2.58626892219394
H         2.09928317294564   -2.63291618475731   -2.03811313219652
H         3.48844866234532   -1.41396155266975   -3.80461393723179
H         4.36450913457913   -1.84436670727996   -2.28768815694489
H         2.54094490155053    1.04090247577901   -3.51073344680782
H         3.88173062893710    1.53760835759561   -4.43092103368162
H         3.04910324316132    3.18158993076286   -2.25171424607147
H         4.70454914182247    3.19553022032000   -2.85034079115622
H         5.18965938158681    2.66183756858865   -0.73499210551596
H         5.60725672804269   -0.08005828057384   -1.18568022653742
H         6.18752682161569    1.04639059972597   -2.40837887964723
H         0.22306091216348   -0.32941012267886   -0.49637276325683
