33
 energy: -44.345751453361 gnorm: 0.132388041686 xtb: 6.4.1 (79825abcba525fcdf90b791dcacef51065a7a4e7)
C        -0.10493684549082    1.68007067359742    0.55913840262801
C         1.20186043710311    1.17470356865889    0.00441445683636
N         2.30595422593943    1.65378913107014    0.49190820234256
C         3.40782049594018    0.85904320852958   -0.11783912539565
C         3.27283276767397   -0.54923766644807    0.52904856940183
N         2.95565470260315   -1.39827780428250   -0.68737646777918
C         1.96968724601016   -0.83167890060029   -1.31872135603300
C         2.08965765350530   -0.80123542918498   -2.84600813120512
C         3.56138980376086   -0.46355927286355   -3.32737248423818
N         4.45879302281971    0.56722544061886   -2.73075169280887
C         4.06958491044666    1.98358408507232   -2.77809598366380
C         4.57663102846293    2.61817576634571   -1.46250026657947
C         4.77297848440079    1.43657806486673   -0.50639647993929
C         5.26634920712318    0.34997794754330   -1.51260721078088
N         1.02209876547527    0.09860677046288   -0.86344849247187
H        -0.57590237145598    0.85734297012986    1.08621668022510
H        -0.74552098920187    1.98998121183638   -0.26877762746893
H         0.14224200747018    2.55847308100121    1.18173026000826
H         3.09508719356992    0.67859772632812   -1.11810548944854
H         2.46301039317368   -0.56437689510957    1.27040501173969
H         4.14450903542741   -0.96897672107951    1.04201492296098
H         1.38273271990268   -0.04407472973967   -3.20711908746603
H         1.82459351560635   -1.74440574696730   -3.33489371664052
H         3.41023120557319   -0.10195445502960   -4.35626788766274
H         4.13026716281664   -1.40190129583108   -3.30655308793610
H         3.01917899980640    1.99855307359275   -3.09066732400916
H         4.61704959130936    2.27431440139334   -3.68147586503651
H         3.91729130501948    3.44802622660860   -1.19202806783724
H         5.50681663608620    3.19515568706434   -1.54774595323579
H         5.48313176874573    1.59452602802714    0.30989597906936
H         5.03400720241419   -0.67495840028370   -1.21213702974954
H         6.29611513527648    0.60143966397453   -1.79219062396940
H         0.14834739407078    0.17619718967210   -1.38424543947378
