33
 energy: -44.342591128434 gnorm: 0.127912310174 xtb: 6.4.1 (79825abcba525fcdf90b791dcacef51065a7a4e7)
C        -0.05330032778949    1.83820948716625    0.60199142813174
C         1.31229127932324    1.37526809228547    0.16418035209397
N         2.32997975676924    2.15583577006839   -0.03884798184508
C         3.42061358332281    1.24910095174060   -0.49257918907036
C         3.76513691672292    0.24031501505502    0.64037933756383
N         3.34155503660727   -1.08420284580936    0.03425081045599
C         2.27514076211708   -0.84442851623797   -0.67075373097146
C         2.20712009155321   -1.48759760619149   -2.05986543268796
C         3.61894048133808   -1.18609244990695   -2.71376924731628
N         4.18168228120808    0.18795672839526   -2.85203192793736
C         3.49431619363307    1.37552952196189   -3.37833504545687
C         4.04706966625174    2.53778510053931   -2.52146864058717
C         4.58997386913910    1.90262370505971   -1.23667879504411
C         5.20741724285686    0.62197359900754   -1.88109598762209
N         1.27100206045388    0.05169446890529   -0.27163241359843
H        -0.19649210220184    2.91289741268191    0.63428514934991
H        -0.22961435383024    1.54744087577593    1.63939420447529
H        -0.85405850537973    1.33562605945097    0.03058524012178
H         2.98232502023019    0.64411487203239   -1.24940841111330
H         3.24365353305945    0.29828520362077    1.60492347483824
H         4.84033161296536    0.24496226224918    0.84791161319958
H         1.30505118155625   -1.11513859601263   -2.56084674508797
H         2.25984364816465   -2.58109655410130   -2.04201467750331
H         3.58122535353327   -1.77678199083452   -3.64215287233130
H         4.38286083280622   -1.71255692312447   -2.12742335206977
H         2.41890686566842    1.24058517222043   -3.21535561973060
H         3.67667213301526    1.61113696853704   -4.43264635826299
H         3.29968508746987    3.31077444998656   -2.32037256803649
H         4.88395862575740    3.03517661845972   -3.02904767258457
H         5.21843548317358    2.54607987878373   -0.61490810654275
H         5.27907567745623   -0.23249029319400   -1.20321975609973
H         6.16012213607906    0.82442563306219   -2.38427022151689
H         0.30249229362718   -0.12616835592806   -0.53817481745477
