33
 energy: -44.341289724433 gnorm: 0.122085508712 xtb: 6.4.1 (79825abcba525fcdf90b791dcacef51065a7a4e7)
C        -0.08349414862547    1.81490068017314    0.59222639004988
C         1.11797355626292    1.05642617685047    0.09020500286587
N         2.23865249770833    1.51882968609380    0.55545539801363
C         3.38742303619663    0.88688675571752   -0.15058747756498
C         3.38669430553405   -0.50349878209463    0.54710008273979
N         2.85609354786507   -1.37092141037925   -0.57860048038163
C         1.96635979387351   -0.83562891313660   -1.36192563207544
C         2.16270449337891   -0.80352716101868   -2.88124877363679
C         3.62326431077128   -0.49385873946890   -3.41285278506555
N         4.47393513000650    0.57950637737356   -2.82289303017229
C         3.99531509668467    1.96574103637733   -2.72764295376234
C         4.59760132656423    2.62816221841925   -1.46707009353770
C         4.77033817251603    1.41254999629651   -0.54984121545334
C         5.23026795530814    0.33181552252205   -1.57797161074860
N         1.00490682096722    0.07213767252915   -0.89054813675461
H        -0.95503395695421    1.16955746243162    0.61347259813340
H        -0.31473953882753    2.58660545423159   -0.14454687905802
H         0.19700661800257    2.23852347722596    1.57312997334231
H         2.92472093329022    0.76488724733051   -1.10028130877165
H         2.78644372583512   -0.51819114666123    1.46641190206161
H         4.34248985494820   -0.98282394718062    0.78339888975874
H         1.52832462294131    0.05343928030658   -3.13933211670424
H         1.89898163350321   -1.64921105664295   -3.52476050884277
H         3.48894527504152   -0.30211808246427   -4.48869042585437
H         4.18656334895161   -1.43553302634478   -3.39084425705301
H         2.92257297821345    2.18287534429814   -2.78556124030200
H         4.36002544167933    2.54435372328405   -3.58352298266968
H         3.79527481357741    3.24625218413763   -1.05382339707208
H         5.57879414103151    3.10572392616161   -1.58795598573531
H         5.46033671577632    1.46177209768555    0.29696326177035
H         5.07552181198166   -0.68196563318260   -1.19973748737176
H         6.29824607269621    0.44885528769972   -1.79601330324049
H         0.09822340164663    0.05478000943549   -1.35779012516972
