33
 energy: -44.346468923035 gnorm: 0.115121164881 xtb: 6.4.1 (79825abcba525fcdf90b791dcacef51065a7a4e7)
C        -0.06751581956222    1.76695146308310    0.73703643500062
C         1.21502646216480    1.24190349999595    0.14522259070090
N         2.29854332338904    1.93493139892998    0.32382763782430
C         3.45867687511337    1.19344456515692   -0.24345498347193
C         3.61864576268835   -0.06935772909963    0.65079370843214
N         3.08653471332018   -1.11176668607193   -0.31429817126611
C         2.05349812090213   -0.81320582736457   -1.04604903845762
C         2.17424191976671   -1.21040110700068   -2.52103427122489
C         3.65539723106892   -0.99477382395803   -3.04201045531543
N         4.30951022006120    0.32882667249849   -2.83219154526823
C         3.67643631518870    1.62763201495953   -3.10074017600835
C         4.27924328437931    2.57498329952492   -2.03784612297125
C         4.75850047644690    1.64558294130299   -0.91740539362379
C         5.30693791349791    0.44318687216183   -1.74808860038316
N         1.06364958322826    0.08623876651180   -0.61963604746393
H        -0.79887886735414    1.04048305806419    1.07445701887435
H        -0.56327087641676    2.29181346871702   -0.08185570697483
H         0.07458556114347    2.47733552112564    1.57098515975658
H         3.02588941338451    0.87928944606283   -1.16263780800100
H         3.13500339147161    0.00639385068734    1.63364802004772
H         4.69362888175424   -0.25905004673202    0.73775916905164
H         1.52623556363154   -0.48376375779922   -3.02652634938723
H         1.92441583083993   -2.22826341707223   -2.83786483186524
H         3.63108071402222   -1.12960896548662   -4.13446682086437
H         4.20731664980801   -1.77588026624721   -2.50368124747188
H         2.58147606102345    1.62663415390456   -3.05238173136166
H         3.92221563098854    1.91484855236281   -4.12905729262479
H         3.42688343007497    3.20521286693310   -1.76797718616598
H         5.03475764085537    3.20335598865390   -2.52750288431792
H         5.56927391055688    2.00376346561480   -0.27713062674703
H         5.31011525021010   -0.49526817587631   -1.18768545741949
H         6.28680476372513    0.72190631865913   -2.15305054144504
H         0.11472718917642   -0.08531412810440   -0.95251302968087
