33
 energy: -44.351120635293 gnorm: 0.113931454465 xtb: 6.4.1 (79825abcba525fcdf90b791dcacef51065a7a4e7)
C        -0.04534287307947    1.86117241723206    0.61524342225983
C         1.25247600730060    1.31942807298442    0.07393673675332
N         2.27162291518601    2.12394942386586    0.05716736838415
C         3.44369147893495    1.33413555598363   -0.41184383228035
C         3.76032714901687    0.27426802622143    0.68194000537011
N         3.42294444450887   -1.03058301512476   -0.01426228603557
C         2.28369774088057   -0.91802828736960   -0.63168509208368
C         2.18124240326843   -1.54391061237409   -2.02656818560384
C         3.53039533362912   -1.13486038472084   -2.75058245057108
N         4.20394325715194    0.18429697479906   -2.92368099663963
C         3.52321512819281    1.40758705274585   -3.37085753066019
C         4.06087419268719    2.55023561819653   -2.47874125307878
C         4.62601058898151    1.86171245095596   -1.23157782483434
C         5.17624399237822    0.54912028563121   -1.87260788366848
N         1.25723089342742   -0.03188729424691   -0.26871302640335
H        -0.09653168655727    2.90577672099819    0.32769783233751
H        -0.11714315569623    1.69744934250484    1.69221928675762
H        -0.91120204164701    1.34405769366807    0.16447845323383
H         3.05746920806139    0.79307250052975   -1.24189119256825
H         3.07190052904471    0.58101114602763    1.48045631879750
H         4.80899773247635    0.40953491332123    0.96676934395384
H         1.23379627045375   -1.26350539468554   -2.50317604353191
H         2.30251796344695   -2.62512872618712   -1.90369422059886
H         3.44392815680625   -1.34852487458150   -3.82719920508770
H         4.32625167097187   -1.74571355724331   -2.30559734146947
H         2.43143139064482    1.35029862722929   -3.29337333674772
H         3.76269422000546    1.59337756107594   -4.42369586332307
H         3.23992874288580    3.23647779655762   -2.25146143882483
H         4.83797927802604    3.07948218031299   -3.04568365635593
H         5.44692156756499    2.37627414277512   -0.72469513440675
H         5.44106090736921   -0.27171530670796   -1.20114635221424
H         6.09744645658320    0.75835630017004   -2.42886687059566
H         0.34255864969250   -0.44827442433390   -0.44389193307900
