33
 energy: -44.338817047956 gnorm: 0.124882106900 xtb: 6.4.1 (79825abcba525fcdf90b791dcacef51065a7a4e7)
C        -0.02351621457912    1.87330445791660    0.58981439615009
C         1.32418985542778    1.33719782092065    0.18102135709714
N         2.32239506654249    2.16658359524259    0.22463147061220
C         3.46311457403923    1.39193038545679   -0.33767946180588
C         3.74572044359422    0.25788839521670    0.68897680472107
N         3.29533442475746   -1.03567047348185    0.03704211447003
C         2.26142935366488   -0.84507016823527   -0.72877402906156
C         2.23867954865046   -1.58980528123489   -2.06772013417292
C         3.61340581560602   -1.26311016732880   -2.78544596739677
N         4.19368877200620    0.11026971594632   -2.75535542623436
C         3.51901061539175    1.25350443561491   -3.38592660797576
C         3.95107741196255    2.49862171832864   -2.57747395078987
C         4.54161752425074    1.94005770933292   -1.27819394547382
C         5.20621062476408    0.63368571241453   -1.81511362474463
N         1.25499024785752    0.08825849928309   -0.43448387754997
H         0.12655141407171    2.91307382016976    0.85974086137718
H        -0.32968098642093    1.33168478926513    1.48689232539301
H        -0.79657467637748    1.75511031558244   -0.19039042109780
H         2.92688380660796    0.89772578007458   -1.11170392402892
H         3.15006688280685    0.42502987780438    1.59612145249834
H         4.79432313744072    0.20576667902629    1.00018507904550
H         1.37088633285566   -1.30421981084275   -2.67501922422351
H         2.25352746467642   -2.68101279192684   -1.97892778517686
H         3.45147545061534   -1.35833130753470   -3.87031656547650
H         4.27589822590425   -1.99981167459295   -2.31330684405180
H         2.45792753722893    1.05348626273276   -3.57400351711658
H         3.91327040413662    1.38594684984220   -4.39951189300766
H         3.34193798578225    3.35793622631818   -2.28240852407641
H         4.79266947812346    3.09230969339881   -2.95783602547097
H         5.31799631920214    2.55928952660067   -0.82060618988880
H         5.45049036811434   -0.08518952243521   -1.02878960836813
H         6.08770732856519    0.91821123493408   -2.40148086244732
H         0.30301023463151   -0.11950734442619   -0.73657428454907
