33
 energy: -44.340287874286 gnorm: 0.130812692736 xtb: 6.4.1 (79825abcba525fcdf90b791dcacef51065a7a4e7)
C        -0.02639321868078    2.02094013016528    0.54265904476576
C         1.22102246531523    1.30405910974811    0.09447444621549
N         2.22894159135041    2.11478040097302   -0.01965828899049
C         3.43011975287591    1.32391287512130   -0.40595061409754
C         3.72984057899434    0.32570456453658    0.74890349465163
N         3.31793036325161   -0.96784068888294    0.07197542640288
C         2.27478812327657   -0.86212334199976   -0.69772623786348
C         2.31537935615001   -1.62196742299322   -2.02773147319034
C         3.57675087707622   -1.19242292856490   -2.88573250563851
N         4.21992917223509    0.15269715553036   -2.85780968457807
C         3.50243160242461    1.34981487874276   -3.31813853096921
C         4.02426899566904    2.49650859709937   -2.42182735679787
C         4.64533766157283    1.83834769707836   -1.18491270230403
C         5.24212814221297    0.57294588760043   -1.87713658968811
N         1.21067817782714   -0.02424372795916   -0.32859679498505
H         0.28898729540042    2.99650596855432    0.89664681678451
H        -0.38599277440152    1.46193376105930    1.40870614881645
H        -0.73453291780430    2.05803845749951   -0.30437736385571
H         3.04007364359126    0.73250714845835   -1.19904505629905
H         3.06703795889386    0.46369269834496    1.61337027652352
H         4.76455077168875    0.27675580296793    1.10402841860072
H         1.35960770908535   -1.67016503845743   -2.56402789261886
H         2.56428837964515   -2.68450249041004   -1.93883883474438
H         3.14099149679751   -1.29567174971128   -3.89155861685644
H         4.45184982487871   -1.83333646764046   -2.71848323620187
H         2.41996418193384    1.20878932212663   -3.21988594864487
H         3.78203852278753    1.61612966237486   -4.34343522481010
H         3.17748628806043    3.13822504760173   -2.16164488660827
H         4.79247267586015    2.95684189544848   -3.05694489575519
H         5.31910089096068    2.48104979165308   -0.61169741638209
H         5.55315766118062   -0.18070577478863   -1.14910536454774
H         6.05541082015376    0.99887252883786   -2.47628225874002
H         0.25881691165214   -0.39092898821539   -0.31469509469482
