33
 energy: -44.343521422400 gnorm: 0.131999651982 xtb: 6.4.1 (79825abcba525fcdf90b791dcacef51065a7a4e7)
C        -0.06312750678345    1.77576335103531    0.53712966153027
C         1.32990811524427    1.40589416241102    0.09726347255834
N         2.34173120305856    2.21049306874311    0.21986396781168
C         3.45053681078658    1.41606716817987   -0.37759715681344
C         3.78603634103187    0.35948283496833    0.71373690263491
N         3.43885480581687   -0.91515693288129   -0.03186312641857
C         2.31274308117318   -0.84034173629807   -0.67842140835467
C         2.19199918788319   -1.54149897644773   -2.03552274861418
C         3.52260364611826   -1.23052637182068   -2.83834289276275
N         4.20767264178035    0.09376370147486   -2.81109739516135
C         3.57943022097363    1.28632979847933   -3.39666875380829
C         3.94169633511097    2.50774161668719   -2.52059176090991
C         4.59322139547170    1.93325575237209   -1.25791959358347
C         5.18053873453113    0.60138571786975   -1.82161727814495
N         1.31523938768045    0.06468105087343   -0.28275879302882
H        -0.08131105241038    2.65445308119221    1.17279830894401
H        -0.35316668435462    0.93941634944965    1.17606511762936
H        -0.71483395095085    1.91857788501606   -0.34331994880853
H         2.91132632719164    0.86206279495001   -1.10782089276055
H         3.20114568396761    0.33739957469128    1.64275041367221
H         4.83868171760063    0.22561669288944    0.98420398940530
H         1.32994483415784   -1.04361992316902   -2.49640783134540
H         2.02014943722072   -2.61948293598370   -2.12070846471520
H         3.14201316783508   -1.53662896067162   -3.82509758014359
H         4.25790154398004   -1.94301486526255   -2.44307361366576
H         2.49281655911016    1.16953393978248   -3.47977693316532
H         4.02976680652006    1.42469452163063   -4.38580426897639
H         3.07410708761843    3.11895521649268   -2.25555835622939
H         4.63770874729113    3.15694000369233   -3.06788153891453
H         5.38860205939440    2.48400288395050   -0.74836505216193
H         5.36332690285708   -0.20116400376894   -1.10240793123816
H         6.15080198978502    0.72598224937189   -2.31647348750915
H         0.41527565210010   -0.31816506536458   -0.57290588755501
