33
 energy: -44.343725024089 gnorm: 0.123425220792 xtb: 6.4.1 (79825abcba525fcdf90b791dcacef51065a7a4e7)
C         0.00249775953815    1.96201373068482    0.49674653710586
C         1.29762842689715    1.29370729990874    0.11355366984875
N         2.34745380379996    2.05769373714289    0.13324181157281
C         3.50681917819967    1.30455783342879   -0.42009388913078
C         3.80832376609250    0.27030864452444    0.70211999219255
N         3.38779559123500   -1.04363106812864    0.07134314134425
C         2.26291559151875   -0.89601758891298   -0.56475257861923
C         2.27633526099003   -1.53159920002833   -1.95894787824792
C         3.59834149368148   -1.20256191266334   -2.76874188356002
N         4.18299923003894    0.15846995069757   -2.94071172577966
C         3.45287511052416    1.36808058147553   -3.34513369782563
C         3.88042338294516    2.55697008068690   -2.45387689345133
C         4.62395862377573    1.87652789345108   -1.29931477683648
C         5.20914713061184    0.59489927795885   -1.97129469990317
N         1.19585805373234    0.00066674596870   -0.39749779085221
H         0.16760732494157    2.68478826406330    1.28847674044164
H        -0.73027429036896    1.21152523742739    0.79948352319536
H        -0.29240154939057    2.37502937358433   -0.48445745782022
H         2.99435924754638    0.74226822953197   -1.16313541622737
H         3.26129270517868    0.47789401201507    1.63126808673765
H         4.86979778328837    0.21153340597963    0.96470950648460
H         1.38452605683518   -1.09241677536583   -2.42287832092439
H         2.15422150604813   -2.61691204366418   -2.03655344701748
H         3.49151065976786   -1.70031802263137   -3.74498915698848
H         4.39982788283683   -1.71370722335111   -2.22020684272944
H         2.40589556006044    1.08808383150109   -3.18169217359769
H         3.72725602493476    1.63913767274784   -4.37059947827061
H         3.08948524051253    3.21260874923923   -2.07825652718621
H         4.49607862409268    3.29343546697647   -2.98679835055670
H         5.24183661528069    2.59761820839110   -0.75723160011647
H         5.35193102732219   -0.23640892658136   -1.27609754804489
H         6.20734172249543    0.81250748463947   -2.36887735318809
H         0.26586230563255   -0.41839617533371   -0.41111261778409
