33
 energy: -44.347245730754 gnorm: 0.127240273528 xtb: 6.4.1 (79825abcba525fcdf90b791dcacef51065a7a4e7)
C        -0.08351055030350    1.80736538931263    0.61606605102968
C         1.29363478155258    1.38110002242541    0.17720127736687
N         2.32556627566990    2.16214763245658    0.07100208629977
C         3.42700847628356    1.32564530873736   -0.48091377965942
C         3.77950664567969    0.32589883901643    0.65759070222714
N         3.41166129882855   -1.03409218743230    0.09520722701372
C         2.30018770529343   -0.90008085068556   -0.56693320311466
C         2.26297951430362   -1.56143792519435   -1.94865205429507
C         3.55432446471561   -1.16145343833589   -2.77579955803340
N         4.15562428399044    0.20168908096786   -2.83972957650573
C         3.49601725621081    1.37849539497372   -3.42268902642623
C         4.02524915028748    2.55270968875145   -2.56727750986203
C         4.59044579681132    1.86589689080173   -1.31919864654986
C         5.20192836657322    0.53134160181469   -1.84988290249314
N         1.32147500006059    0.06503787988278   -0.28180859500471
H         0.03215785225859    2.58565661701156    1.36264792820230
H        -0.61268218884205    0.93785562900921    1.01074021586423
H        -0.56618609446852    2.31610220590715   -0.23746776177676
H         2.98203335633754    0.70806890645359   -1.22353886896547
H         3.17025688671146    0.51065470983189    1.55220282861839
H         4.82889078819505    0.27994040034443    0.96713168687772
H         1.37396848588797   -1.28819672076941   -2.53040367233981
H         2.14807974074915   -2.64693463834635   -1.86301738193128
H         3.47183782929662   -1.41248555942041   -3.84463609720003
H         4.34577841748867   -1.79864477159197   -2.36091583736936
H         2.40782004630905    1.25434694541552   -3.46381672863844
H         3.79900232930783    1.51155155408506   -4.46711853959278
H         3.14700486748440    3.18810970325207   -2.42068393917806
H         4.84133643786837    3.09246447689891   -3.06535805943604
H         5.21295449291684    2.49947597307338   -0.68150035737594
H         5.23404314592312   -0.19990925904002   -1.03809445867287
H         6.10928857660050    0.65479885900524   -2.45260465082482
H         0.42430513918560   -0.24614110368879   -0.65456198382795
