33
 energy: -44.344216471292 gnorm: 0.129291514343 xtb: 6.4.1 (79825abcba525fcdf90b791dcacef51065a7a4e7)
C        -0.11678834921059    1.68377330433716    0.71989900740315
C         1.20576818396351    1.24739964944788    0.14435061531110
N         2.33585800096012    1.71444447994966    0.58134301726270
C         3.38012063204373    0.88007747191483   -0.07506342863272
C         3.32745597366186   -0.59899711336983    0.40400358965232
N         2.86596445321063   -1.37397787082209   -0.81566495756075
C         1.97920875517935   -0.62138340463503   -1.39792644291512
C         2.08363518650881   -0.78067760167517   -2.91833595627308
C         3.59321239796235   -0.54374635309125   -3.33877928084998
N         4.48625074503023    0.48526789117982   -2.73262893989408
C         4.09661447336666    1.89558764798596   -2.87038963397330
C         4.46349600853759    2.56315680554758   -1.52489945442786
C         4.73559693395161    1.44619843013170   -0.51137837171936
C         5.27023600716073    0.35157119778819   -1.48735316909061
N         1.05145918396262    0.27216112793032   -0.83981565376722
H        -0.73084055882540    0.78997781204897    0.74378237706499
H        -0.74719133784176    2.36058240318356    0.13993431331567
H        -0.02374002764043    2.04354275041206    1.76019547853610
H         3.01529585613636    0.86425437058463   -1.07383667915614
H         2.56166439482936   -0.82678684284026    1.15721401824154
H         4.23928002502975   -1.15839253303464    0.63807310646593
H         1.35724666331996   -0.16026682809584   -3.45767489605510
H         1.94880494283014   -1.84613187833243   -3.13156439565447
H         3.59089199182712   -0.22163201149042   -4.39161815044228
H         4.11091299820873   -1.50547686517140   -3.23107059644437
H         3.02799865011888    2.00288599141131   -3.08907840897789
H         4.71193222598203    2.33771926536861   -3.66174328341429
H         3.62336667299955    3.18339860571955   -1.19929435514002
H         5.38291531753296    3.15200895228096   -1.64039494661657
H         5.48540958324468    1.64673956371675    0.25879230704810
H         5.29792016083816   -0.61908672458025   -0.98554001959835
H         6.34019242135948    0.54187663992111   -1.63155738237184
H         0.30759428614016    0.46872560886876   -1.50968028476062
