33
 energy: -44.345766930786 gnorm: 0.115173132306 xtb: 6.4.1 (79825abcba525fcdf90b791dcacef51065a7a4e7)
C        -0.09354981793194    1.82895646594578    0.45773039459382
C         1.19914065225210    1.10946876750910    0.17116016554962
N         2.31972469754077    1.56899927860384    0.63947558406102
C         3.43470416701143    0.88825221791433   -0.07531556386727
C         3.48869984015272   -0.56658924088445    0.47282785160447
N         3.01443668180038   -1.35044367885713   -0.73622451624013
C         2.08180814031692   -0.71922579323227   -1.38701673111432
C         2.05536495994384   -0.78606655082471   -2.91762369630641
C         3.58611306113663   -0.61524276328055   -3.29093572397382
N         4.35091665322119    0.53589667027336   -2.73079330491121
C         3.89276328865438    1.93193576757548   -2.76188334043578
C         4.45685651092059    2.62314567886332   -1.49909984279946
C         4.77379356248142    1.47146353886905   -0.53887118949535
C         5.21126587607967    0.35896801508336   -1.54263720295862
N         1.12016745040782    0.13103759810369   -0.81874910140410
H        -0.06336748701358    2.73014445207744   -0.14513787631325
H        -0.03439647413703    2.14602398304959    1.50071007399413
H        -1.03900154162577    1.27030744853012    0.33797606673173
H         3.01894582330986    0.88138549826302   -1.05408690622355
H         2.74135941344690   -0.62434159549171    1.27519796841747
H         4.50039696182915   -0.91333237120824    0.70814255396952
H         1.42974285120692    0.07341214714728   -3.18841820298739
H         1.72067583566216   -1.71028830853642   -3.39994692830845
H         3.51607905025325   -0.53598412577280   -4.38685818028552
H         3.98758762112172   -1.58353912150425   -2.96572656289786
H         2.80895736984004    1.89038963831926   -2.91973182442714
H         4.27466597832330    2.39060179507729   -3.68063941029625
H         3.70433644993799    3.23062007574501   -0.98799878821328
H         5.40489612432915    3.11661505966006   -1.75035028997678
H         5.47893546766652    1.67152546695739    0.27251573979988
H         5.09679992018929   -0.66707367319046   -1.18361679213538
H         6.27618355078894    0.38082707254474   -1.80204089678238
H         0.24135567105670    0.04409708870006   -1.32945684454062
