33
 energy: -44.339134413254 gnorm: 0.131136279056 xtb: 6.4.1 (79825abcba525fcdf90b791dcacef51065a7a4e7)
C        -0.10643006331486    1.82812017248545    0.48110935744465
C         1.20808513410999    1.22006019014334    0.06500056981002
N         2.34847912813685    1.70927042835247    0.44758533347795
C         3.39208934007428    0.80747453137632   -0.11380940428864
C         3.41415162858147   -0.65245007995137    0.42291565460134
N         3.04141347193287   -1.43998532104048   -0.81886349986432
C         2.11033650342270   -0.74324690985942   -1.40145579313700
C         2.03799867118550   -0.77367526724138   -2.93173875693856
C         3.52728338919851   -0.46559003597109   -3.37766127875036
N         4.34890451075778    0.58335933295030   -2.70799717905683
C         3.90244542219874    1.98150300934856   -2.63273233999142
C         4.47513711290618    2.56299000897661   -1.31953335930152
C         4.78856268021203    1.34679421743984   -0.44118711386582
C         5.18678636256928    0.29662302721334   -1.52522258229800
N         1.18618686942070    0.10897788528442   -0.77672458474428
H        -0.51722186933971    1.33319119691664    1.35449146251470
H        -0.90515866274554    1.80450732714609   -0.26274048178703
H         0.03776800679016    2.90056590242707    0.70331615251582
H         3.06730715221961    0.62045413644179   -1.10901561129634
H         2.61858327740228   -0.87493990081223    1.14625522292023
H         4.33579764049781   -0.93780191451507    0.94087108864686
H         1.36277008054077    0.05642439488272   -3.17347666353900
H         1.72766100949164   -1.64321655264853   -3.52031912297302
H         3.58931645640309   -0.25280956957304   -4.45613663385569
H         4.04610917883455   -1.39393381073784   -3.10648182991221
H         2.83581952302768    2.12160337343161   -2.84239533397762
H         4.47637580278540    2.41026432275206   -3.46165004419659
H         3.79175401580740    3.27157480087857   -0.84263608774485
H         5.40194425228332    3.06609066753215   -1.62504306419304
H         5.56075200281343    1.53830663324849    0.30890972986025
H         5.08972533804284   -0.73823439179419   -1.18697868268671
H         6.21610441384090    0.45379852701799   -1.86817733267515
H         0.36140572453964    0.13865650698843   -1.37634650796795
