33
 energy: -44.349779210187 gnorm: 0.115182003283 xtb: 6.4.1 (79825abcba525fcdf90b791dcacef51065a7a4e7)
C        -0.05806030666871    1.87462469552936    0.42151651014321
C         1.19203206150406    1.11368691258939    0.06224439285725
N         2.31266364141732    1.50303631973005    0.59024829631699
C         3.39219985239891    0.74673463332944   -0.10266691591467
C         3.35143430850551   -0.67258704866936    0.53278924709614
N         2.76266073693870   -1.47061390618507   -0.61510436990960
C         1.95287249745531   -0.80015789864665   -1.38093350022016
C         2.16951968481303   -0.91341083956999   -2.89360079504961
C         3.63033857614864   -0.47220156708036   -3.32147329575409
N         4.41237673129045    0.67269769326778   -2.77244867798886
C         3.88022083755792    2.03869509799333   -2.66921383627705
C         4.55951360096623    2.58882294997316   -1.39386480548883
C         4.74046380112304    1.35658321305566   -0.50072306761939
C         5.30070005022470    0.42221072342877   -1.61860406129233
N         1.03455498612352    0.17165669153928   -0.95326764802663
H        -0.53008773983523    1.36911695314882    1.25707197382226
H        -0.82624635293686    1.91781915450701   -0.35299105405994
H         0.15328585674940    2.93316740603698    0.65631199573268
H         3.01545061822341    0.56450331325496   -1.08029018076127
H         2.75098963751368   -0.66316434905687    1.45204343171704
H         4.35598417613734   -1.08051938114654    0.68643053783211
H         1.36469228490897   -0.33493783718871   -3.36376900344918
H         2.08053857440016   -1.95900530740011   -3.20609549274920
H         3.41547438123497   -0.17364295053044   -4.35922511859195
H         4.31036279702566   -1.32783614179965   -3.22148741370805
H         2.79518723321316    2.18977947671438   -2.63525688012861
H         4.27906059249768    2.71196866180798   -3.43600354394813
H         4.00203115515655    3.40976944111054   -0.93365175590767
H         5.56054164683236    2.95023382243109   -1.66357382890784
H         5.46276631187559    1.48759260231858    0.30965601071799
H         5.24537416232433   -0.63925619241651   -1.36367920035800
H         6.33813029123508    0.75856974676420   -1.73004393815010
H         0.20866472736870    0.43458784924389   -1.49128593476284
