33
 energy: -44.345915151835 gnorm: 0.116219750980 xtb: 6.4.1 (79825abcba525fcdf90b791dcacef51065a7a4e7)
C        -0.06668810046209    1.90368886132103    0.46471591720628
C         1.24445211672242    1.31814156719339    0.00768264587410
N         2.27298747719875    2.10870995122862   -0.04987501446594
C         3.50670474372718    1.33509290636738   -0.36129199711756
C         3.77470842821966    0.30664534299642    0.77467016490780
N         3.36141560549673   -0.99192218011546    0.10828260340418
C         2.27261310793127   -0.95613327458677   -0.60234445567515
C         2.29208450498342   -1.66282757870494   -1.96180341080649
C         3.43793355200286   -1.15630009463246   -2.93246928022580
N         4.11415831186255    0.16895273735744   -2.83132065947443
C         3.46517332353256    1.43811962260460   -3.18885408593260
C         4.15058852909922    2.58032239905785   -2.40388703070946
C         4.69986766913242    1.84390359026953   -1.17716796110728
C         5.19698908863656    0.55436697542569   -1.90279881375300
N         1.26040333313569    0.00680838409647   -0.46521855216992
H         0.10764792303105    2.97237904764900    0.52803379350507
H        -0.12753197547730    1.58220333394501    1.50624490079093
H        -0.95356541519387    1.59382098229558   -0.11643752112167
H         3.08825766138250    0.77915538806175   -1.16548787337647
H         3.12215942855769    0.45919055279885    1.64447509295608
H         4.77514952568723    0.20745725915014    1.20873721428445
H         1.29400247465950   -1.53333383500496   -2.39826640624801
H         2.58511580595908   -2.69624505186952   -1.74962573913213
H         3.06675706178773   -1.08025241736482   -3.96623786276384
H         4.22852447031488   -1.91754419850627   -2.92871883467992
H         2.39842986436805    1.33644309867386   -2.95864164017979
H         3.48217401865426    1.53002248693366   -4.28045920769333
H         3.39202869706427    3.33982840410898   -2.19347438614192
H         4.90433561996869    3.15683109408230   -2.95608352748635
H         5.43432570905299    2.48381145576810   -0.68049106476246
H         5.48670600725098   -0.18039568485821   -1.14718807238454
H         6.02864958628326    0.78463634722390   -2.57891609673699
H         0.37552924206310   -0.39181530773378   -0.77952445940355
