33
 energy: -44.347108258214 gnorm: 0.115156589972 xtb: 6.4.1 (79825abcba525fcdf90b791dcacef51065a7a4e7)
C        -0.07367467144748    1.94516381767870    0.43690277703800
C         1.27618102663229    1.32336928748550    0.18771436533500
N         2.30355661437997    2.11376097927708    0.11040584652048
C         3.47276412265309    1.32743226642679   -0.37142723631708
C         3.79490494758845    0.25269214418178    0.70611597100167
N         3.42968842908203   -1.04107643605764    0.00330680966875
C         2.31555354893293   -0.81315772863726   -0.62797685450451
C         2.27391452854228   -1.54259546796311   -1.97486637865985
C         3.53433040274817   -1.15298242181397   -2.85309519651354
N         4.16982011820972    0.19350929743332   -2.93627518884941
C         3.42977447969747    1.40026614249182   -3.33107465402043
C         4.08895304016001    2.48941099876506   -2.45366849227714
C         4.66372208071917    1.81774136404871   -1.20172585661346
C         5.19590570633098    0.54553495351007   -1.93305749001411
N         1.23510710832460    0.00287670225230   -0.25736647556063
H         0.09180293782330    3.01651753403108    0.47322477968055
H        -0.52693705280976    1.65786527371877    1.38761319395858
H        -0.80409835535624    1.66197307712879   -0.34193805375169
H         2.98827154002193    0.81135265762024   -1.16504192130971
H         3.12581629154315    0.23440805565626    1.57653938352727
H         4.86032258268472    0.29587030322542    0.95542658928181
H         1.32683005493504   -1.39862127658101   -2.50941173635529
H         2.40266469455615   -2.58916150791007   -1.67997437085504
H         3.15826530396063   -1.41351677373394   -3.85455893138195
H         4.41424367601622   -1.76102823857281   -2.60697821457432
H         2.35397962423667    1.27456358498896   -3.16331951038585
H         3.49978681889518    1.58968279166880   -4.40790170894047
H         3.31579138887837    3.11616253375809   -1.99986297430587
H         4.83125507918193    3.08457199844769   -3.00156354679757
H         5.35570181948690    2.42208105461787   -0.60882096577142
H         5.37356604241504   -0.26735643358165   -1.22425282635992
H         6.11487754090353    0.91144381837679   -2.40572990951052
H         0.36041167687505   -0.40220284592705   -0.59129709523342
