33
 energy: -44.337019988352 gnorm: 0.117415099160 xtb: 6.4.1 (79825abcba525fcdf90b791dcacef51065a7a4e7)
C        -0.03229792249342    1.83698170852200    0.55742086091783
C         1.19377051694753    1.15705601689853    0.00488946740798
N         2.33855709194345    1.61215472887373    0.41543190359422
C         3.45632888224673    0.77024707451925   -0.09378306664892
C         3.23061602144907   -0.63231050957558    0.54011465669077
N         2.69432198781897   -1.47237984592019   -0.60349068144763
C         1.90802246033462   -0.79831269333908   -1.39033822261434
C         2.15142296875861   -1.02047975471001   -2.88677485042010
C         3.51527833183274   -0.40935143479578   -3.41417702675974
N         4.40881758439344    0.55858602903179   -2.71525594553170
C         4.07304780469690    1.98729109572411   -2.63872671965950
C         4.52418104764759    2.63129924644796   -1.30743908936596
C         4.81057003479484    1.38627876522823   -0.46081918926900
C         5.36675840545770    0.46797820720275   -1.59393572812281
N         1.01602297150926    0.21606701005486   -1.00823944063802
H        -0.80862006165728    1.13028694534474    0.83019797654659
H        -0.33191027805333    2.61536355163745   -0.14698788676755
H         0.39021033117104    2.35293941473049    1.43809289068724
H         3.14311418028185    0.61818498047938   -1.09860601764108
H         2.38158947921886   -0.50389283726336    1.22444913987177
H         4.16150116528263   -1.15307168864896    0.78789584509118
H         1.31962326069426   -0.69709342362622   -3.52471436490355
H         2.23402872317167   -2.11122435563015   -2.93463796391686
H         3.20992636390581    0.00864628898568   -4.38591299275640
H         4.17225864663010   -1.27880927683831   -3.54440979111382
H         2.97824925914868    2.00095013286103   -2.68879733875386
H         4.41335340923694    2.52060099718858   -3.53321514418124
H         3.71340629984131    3.25597183378178   -0.92148010786245
H         5.34969079799886    3.34703630789396   -1.41547626519495
H         5.57245715814330    1.49224527452067    0.31628938332661
H         5.55787154577711   -0.55024207397762   -1.24542048950978
H         6.31577109067685    0.80130582257657   -2.02992353165203
H         0.17604191414507    0.28642436813504   -1.58284614225096
