33
 energy: -44.340876534904 gnorm: 0.128287705775 xtb: 6.4.1 (79825abcba525fcdf90b791dcacef51065a7a4e7)
C        -0.10302170023567    1.85344614468757    0.19574670701720
C         1.22898545279185    1.18042922103166   -0.01315250472172
N         2.30493202235921    1.68307469486886    0.51209290946354
C         3.41200332978440    0.84300285971464   -0.02287868022760
C         3.41632057360564   -0.60391667749155    0.54838800110260
N         2.93044269948003   -1.47649452432148   -0.59340512608804
C         2.02045001591229   -0.90660360876693   -1.32750334784658
C         2.19611749413964   -1.15314958178406   -2.82959543525295
C         3.36023776554567   -0.24707403886749   -3.40889110375867
N         4.08479947209584    0.74713122101276   -2.56605524781472
C         3.94535739995265    2.21010391165471   -2.57399653762198
C         4.68300710208308    2.55254542029601   -1.25900558768472
C         4.82390200151753    1.25919049618425   -0.44891819491021
C         5.11771119132088    0.27239844202327   -1.62215820845587
N         1.17086192971283    0.14219173235685   -0.94168320983194
H        -0.83940220539087    1.13786353582288    0.54529812297423
H        -0.33020558517119    2.26720998360846   -0.78864372083788
H        -0.08490325785663    2.69983647930803    0.90539726767243
H         3.07117424889871    0.70346173420488   -1.02050551807662
H         2.78505062432179   -0.64543849324197    1.44584275806017
H         4.39506664453975   -0.98372528889477    0.85973414653553
H         1.20979691999916   -0.88280620346549   -3.22648648212425
H         2.54324138551747   -2.17166165795973   -3.03202204082365
H         2.90914116650843    0.27904582045499   -4.26442746806675
H         4.05069919582180   -0.92442858660519   -3.92753788231040
H         2.90489040244110    2.55286195382107   -2.60896572018492
H         4.50241453675357    2.61245466614982   -3.42730663384847
H         4.22792428581642    3.35740184674490   -0.67450440220394
H         5.71193867615741    2.77238066506298   -1.57267772355106
H         5.65253385436899    1.30579144651904    0.26297803053278
H         4.98257455460622   -0.80093488669421   -1.46578266316501
H         6.16124371125507    0.36035788961776   -1.94638152948031
H         0.26886370993177    0.20971159492286   -1.41341564195717
