33
 energy: -44.341281087479 gnorm: 0.131116790164 xtb: 6.4.1 (79825abcba525fcdf90b791dcacef51065a7a4e7)
C        -0.10814905685924    1.90829723152429    0.57299943810392
C         1.23477989843798    1.35520586671098    0.17117175703750
N         2.26226604619397    2.12041472596975   -0.04078074471261
C         3.46662432014792    1.31253203128526   -0.37896540238878
C         3.70663322985971    0.24887449295493    0.73052491602729
N         3.39478565353504   -1.06598703157050    0.04128531468727
C         2.26018727722122   -0.83386002368021   -0.55080092852763
C         2.22725176017744   -1.46221722567073   -1.94794340287433
C         3.52696141903230   -1.17201901659665   -2.80717105054242
N         4.26710922736145    0.11031964340001   -2.98492035442989
C         3.69216595597944    1.37061624559042   -3.47572474861236
C         3.97137311482320    2.48986818519229   -2.44620402603669
C         4.63067070970332    1.83687976141901   -1.22645294034431
C         5.23073091506778    0.61014358531445   -1.98250890398038
N         1.20483562229562   -0.00253929982086   -0.14365536536915
H         0.08560773468593    2.88227092851772    1.00927281431275
H        -0.56282275086598    1.12441073683235    1.18179442955385
H        -0.76646359815694    2.05123229410314   -0.30250060800627
H         3.07954286847254    0.74195069860642   -1.18859518584758
H         3.08777867362730    0.45775925489363    1.61315566989557
H         4.75630145517619    0.15528237810869    1.02813541645185
H         1.33891904469310   -1.10084920186877   -2.48059192534229
H         2.18084585028380   -2.55598234093780   -1.96698897517675
H         3.39643058258440   -1.57549283944742   -3.82324353340823
H         4.41188603127565   -1.66228941028540   -2.38163136468408
H         2.60774214590555    1.35841217566552   -3.63432345684569
H         4.22554912698024    1.49356605452143   -4.42478883566773
H         3.01905015310234    2.91575436263705   -2.11720887041661
H         4.56060807829291    3.33557499559515   -2.82435752789052
H         5.38461165238224    2.48142074922205   -0.76630231685039
H         5.51591805545806   -0.22995053818064   -1.34401864435407
H         6.08668857377833    0.92714338197579   -2.58968710122461
H         0.26614462848661   -0.39593931762162   -0.21284241438914
