33
 energy: -44.348529991267 gnorm: 0.123232853525 xtb: 6.4.1 (79825abcba525fcdf90b791dcacef51065a7a4e7)
C        -0.08778693702643    1.89596188768721    0.44423263156919
C         1.26508556215375    1.33488624647420    0.08960068290895
N         2.30681272154433    2.10127425668084    0.20643462883557
C         3.45433139187561    1.32324521289151   -0.33706686256938
C         3.85661670931368    0.24552455189053    0.71013182959345
N         3.46891644439566   -1.06905755409619    0.05996004945294
C         2.35428191929916   -0.90914113119742   -0.59102315105665
C         2.17249648230831   -1.51850785524084   -1.98513607603047
C         3.48196576276317   -1.20071721318364   -2.81942120072291
N         4.13589932566716    0.13949798879444   -2.81904774685441
C         3.60794622576206    1.37684797085331   -3.41067836225407
C         3.99936242596849    2.53638636124323   -2.46576644166555
C         4.58285275571530    1.89327935496746   -1.20290765359304
C         5.16487369928225    0.60599648521145   -1.86678185352939
N         1.32324787742027   -0.00523460554612   -0.29010699277986
H        -0.00631195016881    2.97343889384722    0.53860442839871
H        -0.31653174506153    1.39629554968128    1.38754960284894
H        -0.74919583444376    1.63669131158631   -0.40171407651452
H         2.99848228109968    0.78185687101621   -1.13078957369745
H         3.26572773441293    0.41979076175618    1.61905006517288
H         4.92303281606959    0.14489752310624    0.93765273027781
H         1.30426179763665   -1.06344060929383   -2.47759789451969
H         2.05834389211726   -2.60576364413492   -2.04581884316642
H         3.25134503045618   -1.47790046761656   -3.85971742585785
H         4.23197936465941   -1.89638353013023   -2.42184275211562
H         2.52490979303064    1.35938808169719   -3.57802448818969
H         3.95631843869692    1.54315855057134   -4.43601464364003
H         3.12725517188165    3.18225977187503   -2.32860834116291
H         4.60739182739203    3.24907243469675   -3.03830179258307
H         5.23121123371457    2.55579884765531   -0.62299573428626
H         5.31786031808140   -0.17118795529448   -1.11356270036268
H         6.14744841574903    0.80146472356180   -2.31192996087462
H         0.39162921159227   -0.19822807245551   -0.65825286974901
