33
 energy: -44.347496719260 gnorm: 0.123969734552 xtb: 6.4.1 (79825abcba525fcdf90b791dcacef51065a7a4e7)
C        -0.06952297204771    1.84175903522381    0.43660753225192
C         1.17815545531716    1.08147265896149    0.06769441221091
N         2.30063161357657    1.58871314251411    0.47873043489809
C         3.40923713877473    0.81614423554319   -0.14709162114213
C         3.43057438693153   -0.62296104455336    0.44321433722572
N         2.89333166171571   -1.44126699471392   -0.71562412545342
C         1.91882546914769   -0.86462430607607   -1.35561118612401
C         2.06569463555980   -0.80101232594209   -2.87952311938623
C         3.54083030568304   -0.42262459130809   -3.31830533671370
N         4.39776737903801    0.63357710184463   -2.70682935433899
C         3.99061974984419    2.04449129963547   -2.64896585817276
C         4.66358504888004    2.61976285830622   -1.38137964564539
C         4.79271982901898    1.37209508797697   -0.50074961185745
C         5.25605780571087    0.31141086611551   -1.54805158786355
N         0.96824232205016   -0.03811756911739   -0.73600883411607
H        -0.82885069267237    1.22933447205023    0.91079997957593
H        -0.43244394667438    2.19954880408168   -0.52885214849149
H         0.12004097186860    2.71502048424370    1.08606018525350
H         3.03851672270204    0.74673731977338   -1.14139768437172
H         2.80729271931910   -0.54576054071552    1.34388680695088
H         4.42834682847542   -0.97894232654823    0.72045494990495
H         1.28588265608325   -0.11823705505918   -3.23889412527812
H         1.86878087628731   -1.75016721711861   -3.38860890202651
H         3.34877043818429   -0.13227499250917   -4.36283529720958
H         4.22050223940943   -1.28430734512762   -3.30884255083749
H         2.91006278362493    2.19249060334668   -2.54047465627038
H         4.32193113803026    2.48621107459470   -3.59524980505921
H         3.98756004769375    3.38978163283580   -0.99849956424047
H         5.64136524963837    3.05571866302426   -1.62490857526762
H         5.45742432243079    1.55133743140966    0.34874362068317
H         5.10924538699070   -0.68166217592632   -1.11560309081464
H         6.20262313043840    0.57783508288263   -2.03266480940524
H         0.16627561475143    0.08586752474453   -1.35420646856819
