33
 energy: -44.348229993859 gnorm: 0.120930322490 xtb: 6.4.1 (79825abcba525fcdf90b791dcacef51065a7a4e7)
C        -0.04782724709501    1.95078608560928    0.32372168679286
C         1.32286629267249    1.35708230810892    0.12485298907903
N         2.36230128799064    2.13077308428403    0.20955074342828
C         3.51835738957071    1.33441625706790   -0.28731166629466
C         3.85075437107601    0.22156281699534    0.74758439609071
N         3.38957838312843   -1.04883299487446    0.05869243305227
C         2.28559718480287   -0.86318079052007   -0.60351697526960
C         2.29182638968304   -1.53239018102328   -1.98193803003356
C         3.54685606967881   -1.19295644082988   -2.88825894559855
N         4.16146959279686    0.16556463957608   -2.91009329879077
C         3.30513987918674    1.33001294251503   -3.17571676004142
C         4.01025044036928    2.50734881613401   -2.46347115506736
C         4.61925712064507    1.85371666132210   -1.21818573550716
C         5.17361178952090    0.57035750560333   -1.91263133984026
N         1.27022375932423    0.09674717395068   -0.46866938734106
H         0.00103607534740    3.02903913658001    0.43088345177319
H        -0.49396158169565    1.52134235301079    1.22282111312971
H        -0.73213225508058    1.56121099624866   -0.45104711812894
H         3.04391961082995    0.80699260233448   -1.07954179491329
H         3.38698144505574    0.37957998587725    1.73023188789888
H         4.89289306104218    0.05094454581254    1.03736228714626
H         1.41769438928677   -1.38731621537393   -2.62868612451859
H         2.41268503366778   -2.59923741288165   -1.76730217073234
H         3.24041563360200   -1.38465761431690   -3.92824819490403
H         4.32460867276525   -1.89352353849406   -2.55833882935954
H         2.25397494678772    1.30496421133611   -2.86635881642217
H         3.31577765230193    1.61145601245656   -4.23449602875943
H         3.33742468954124    3.28548214170019   -2.09151697999095
H         4.72318255298065    3.11690161198066   -3.03407707325468
H         5.39934286833076    2.39070709031398   -0.67164558740755
H         5.42385322587648   -0.25589749666809   -1.24222732099603
H         6.08149311787365    0.85697867121331   -2.45615461296107
H         0.34155909813922   -0.24511347484357   -0.71646859124975
