33
 energy: -44.343769452869 gnorm: 0.118502705033 xtb: 6.4.1 (79825abcba525fcdf90b791dcacef51065a7a4e7)
C        -0.01490858355537    1.96160511427610    0.53648074174770
C         1.25234601610014    1.31771338942383    0.03617791589473
N         2.29663716017399    2.08816932793520   -0.00909761324052
C         3.47439432799669    1.26931060842952   -0.40894834353952
C         3.80261022145033    0.18497485650004    0.65708669090489
N         3.23621143368766   -1.10727364270570    0.09990882790723
C         2.17467230820471   -0.91704064372206   -0.62721468874599
C         2.24561544804675   -1.58536787915759   -2.00425149973768
C         3.58299335748714   -1.14812084189004   -2.73361265800386
N         4.28859994556468    0.15739879977438   -2.88039083061821
C         3.56103883293758    1.34939706469055   -3.33820215261951
C         3.93529159066831    2.53258217836933   -2.41592111048048
C         4.62838035040828    1.86058619012040   -1.22558112873956
C         5.32008505539594    0.66452096144407   -1.95190549368823
N         1.13460559999346   -0.00524823509571   -0.38737185539496
H         0.16173274849922    2.98591584168973    0.84645861222102
H        -0.46313309754406    1.51502670818569    1.42614362397708
H        -0.87742789415885    2.09731568025140   -0.14024066539340
H         3.04651839848664    0.70714716524018   -1.20380049409182
H         3.31624683035375    0.48188370036677    1.59567426620193
H         4.87055786379651    0.08320793496438    0.87678237617396
H         1.32547634284162   -1.26532002631429   -2.50858244961630
H         2.47732269895974   -2.64392511689970   -1.84738627533076
H         3.55508588995386   -1.52464558572375   -3.76786746478628
H         4.36333008989843   -1.70126890111861   -2.19542824500238
H         2.47307288838893    1.25705461902790   -3.24291067104649
H         3.83142536766525    1.40347748440184   -4.39853386124311
H         3.06274384039682    3.10294703122529   -2.08443924334407
H         4.52152670619366    3.27673291926822   -2.97088596215324
H         5.30676411047590    2.55533065794831   -0.72286428698165
H         5.67056621817866   -0.14060927235781   -1.30099235770611
H         6.11168930689664    1.12509666511414   -2.55444219392058
H         0.15622919881787   -0.28603016715956   -0.45543295020665
