33
 energy: -44.342596991707 gnorm: 0.150458508508 xtb: 6.4.1 (79825abcba525fcdf90b791dcacef51065a7a4e7)
C        -0.04046307527245    1.94793667904360    0.57903747428010
C         1.26207974347628    1.37649270522615    0.08137524195026
N         2.27446675304791    2.18548588172431   -0.00107976200287
C         3.38632280537753    1.30108539122437   -0.44732417946783
C         3.69454292301014    0.27604782025206    0.68149766731078
N         3.46572717087513   -1.05033227569343   -0.01815950985297
C         2.35867456076747   -0.82513020665377   -0.66273773571395
C         2.31009347512314   -1.56077754226575   -2.00601265042600
C         3.60943398063721   -1.25124592967826   -2.85902894755616
N         4.16920801137871    0.13087399984369   -2.87329751265006
C         3.39881631429069    1.34643735853594   -3.17112063650857
C         4.04758717580052    2.52789922628234   -2.41359922050739
C         4.62465800607141    1.83908249322430   -1.17207568498159
C         5.17502698830323    0.56154325507187   -1.88028611391955
N         1.30779381986276    0.05303511430394   -0.35434820440705
H         0.09131563091273    2.98588958935627    0.86502530237526
H        -0.39142785754790    1.46302364429101    1.49201097285851
H        -0.84795628965399    1.78488910654466   -0.15695097078598
H         2.98059677707329    0.75314991918539   -1.26344218830995
H         3.10089106115027    0.46155751121436    1.58638134993809
H         4.75686846349597    0.25642547269885    0.94647746380314
H         1.47689762209009   -1.16796951884325   -2.60176666379895
H         2.20186514507390   -2.63682527489795   -1.83499720648367
H         3.46316456697037   -1.45224577784532   -3.93161322852864
H         4.44946280744987   -1.86236915294405   -2.50488119474034
H         2.32484529362614    1.17440027211400   -3.03596523214065
H         3.56209336719647    1.35063464337734   -4.25447648513601
H         3.26655441123308    3.26249723936265   -2.19705948928322
H         4.82093353554136    2.94200768627543   -3.07380185577767
H         5.28767013957657    2.56407993786023   -0.69208375308141
H         5.37823041261985   -0.20102431400765   -1.12400658225183
H         6.04930728690611    0.83254865520636   -2.48361669058018
H         0.43158427911854   -0.28046450807181   -0.75649997921264
