33
 energy: -44.343775567249 gnorm: 0.118943249666 xtb: 6.4.1 (79825abcba525fcdf90b791dcacef51065a7a4e7)
C        -0.10288702587153    1.84714156746576    0.41550800127651
C         1.27428811375222    1.36811770537263    0.03503660728258
N         2.32344905555435    2.13160128734076   -0.01546463464244
C         3.51523815101826    1.31046257569398   -0.36602437427798
C         3.80758779456008    0.32351585985206    0.80034103503858
N         3.38895591669428   -1.00050466083243    0.18970369051319
C         2.39334201468783   -0.78651556623619   -0.61944657670913
C         2.28686766828247   -1.50651374810683   -1.96784950362445
C         3.54690168998561   -1.15918260401475   -2.86417963588531
N         4.15721794600762    0.19661378747149   -2.97879316388776
C         3.36207792647554    1.40694139934486   -3.22910431610781
C         4.05088142944430    2.49035515706974   -2.36750183837432
C         4.72136497441532    1.78943079148458   -1.18090301707219
C         5.17744018659102    0.51512718614543   -1.95854062262824
N         1.28466723328294    0.05265401268961   -0.42640922109153
H        -0.10208644219201    2.76364175915375    0.99561804519114
H        -0.54266158447873    1.12656051201614    1.10774988275570
H        -0.84190069184382    1.77735894270663   -0.40259833485947
H         3.11479872669141    0.65460594118936   -1.10114057775136
H         3.09167312845200    0.62535156419605    1.57623551929843
H         4.78042628966318    0.31468733530039    1.30297627871393
H         1.31818106950762   -1.23955239972338   -2.40809287137724
H         2.35863000731784   -2.58621792196999   -1.80073444771528
H         3.16785417800806   -1.33548357737502   -3.88274415216238
H         4.41440414344745   -1.81427060669291   -2.71305104278561
H         2.28530760271133    1.28081140895651   -3.06806274808732
H         3.37957145800809    1.59423397869967   -4.30843390873296
H         3.37194850752276    3.26750996848626   -2.00471214847466
H         4.76862492470391    2.98006037974996   -3.03865829915528
H         5.57218631876452    2.27578569791096   -0.69596944213395
H         5.41679047564411   -0.31694469075038   -1.29136187145866
H         6.09133222614653    0.72641975430108   -2.52596862652274
H         0.35854748291558   -0.25769855984153   -0.72081487763683
