33
 energy: -44.351952301996 gnorm: 0.119695050529 xtb: 6.4.1 (79825abcba525fcdf90b791dcacef51065a7a4e7)
C        -0.00791503778120    1.96083800857504    0.46070847063355
C         1.28985773142090    1.33028249921113    0.02594496681643
N         2.31902789711639    2.12085208725189   -0.01882932577386
C         3.50019227815647    1.28998958528432   -0.38220293843339
C         3.74437287876158    0.22695234984367    0.72697156393856
N         3.34608735736861   -1.08996534046270    0.08802133559560
C         2.28685424020151   -0.88974157045352   -0.63978233006565
C         2.30090486563072   -1.61810813143733   -1.98782140283692
C         3.56014478193040   -1.14712986970030   -2.82700354548145
N         4.18666618109742    0.20605708476047   -2.83973316250830
C         3.36345793577073    1.37077117684040   -3.19408541331649
C         4.01175891479760    2.53906184564433   -2.41601265238002
C         4.66021998186102    1.86469635971588   -1.20209776570960
C         5.25824891941930    0.60522510781097   -1.90400095033848
N         1.23175669799661    0.00677919619901   -0.40816097713607
H         0.23364945416512    2.95918703318168    0.80920055771283
H        -0.41130935276783    1.36027561639386    1.27828744794879
H        -0.71168577490059    1.97415967059101   -0.39066575918718
H         3.03910588786045    0.72379639592454   -1.15532654248508
H         3.13589703127579    0.45045508182694    1.61323028585833
H         4.77268496459488    0.27723645513056    1.10004077595028
H         1.34612867590859   -1.44561416133742   -2.49976335650119
H         2.46652003712329   -2.69692568820620   -1.90085780620959
H         3.24067713789276   -1.27536980568607   -3.87281790063585
H         4.40012104536568   -1.81425003118388   -2.59477258922217
H         2.30332991539488    1.39443009455784   -2.91687371189842
H         3.28245115210630    1.48718501109120   -4.28046592808222
H         3.21565406889087    3.28037452271871   -2.30108458133669
H         4.84553710707829    2.91722334831031   -3.02200417948207
H         5.38194198583068    2.38373163645678   -0.56545158174495
H         5.55418781158509   -0.19839503824981   -1.22475542237099
H         6.07300708481825    1.02362638534858   -2.50643538843213
H         0.27867099051021   -0.28748701446351   -0.62199790191079
