33
 energy: -44.344967998902 gnorm: 0.115785185578 xtb: 6.4.1 (79825abcba525fcdf90b791dcacef51065a7a4e7)
C        -0.08945183439879    1.84136096072825    0.51367848811599
C         1.24380647970116    1.32998201097077    0.03227685921066
N         2.30104201989139    2.08251717198384    0.07853770563528
C         3.50569849178415    1.32430829622072   -0.35900570535844
C         3.75542975797600    0.35640349563589    0.83294017620030
N         3.43229548160593   -0.95223569890894    0.13708915323862
C         2.39474022248043   -0.82540635608874   -0.63696246938332
C         2.27789187370394   -1.61824170548968   -1.94298053159717
C         3.48360931346501   -1.15294262482739   -2.86029976710802
N         4.10662890747559    0.19824317678936   -2.96004718992033
C         3.45544788000005    1.45107628323167   -3.36768516298558
C         4.05737997431014    2.51599192632690   -2.42204945916258
C         4.68146311390216    1.81191172547251   -1.21223492429306
C         5.17053837478273    0.55556790586052   -1.99898781285714
N         1.29135335571917    0.02086148159089   -0.44461664032201
H         0.01435555035950    2.91030559532653    0.36174986180554
H        -0.27771368796738    1.54740050933104    1.54807795690040
H        -0.91479310818324    1.51543803183562   -0.14426893863974
H         3.02006154325161    0.82254761459614   -1.16105836207129
H         3.11309528139392    0.60543123074057    1.68795038275612
H         4.78336296442944    0.26863392449415    1.20007052630460
H         1.32328319049444   -1.34779544515822   -2.41097347073089
H         2.32325767550423   -2.69679458267095   -1.75993954395876
H         3.14460089877382   -1.44802806369678   -3.86540204856871
H         4.29255771289644   -1.75354828173243   -2.42508029821169
H         2.36514407540352    1.34355299177043   -3.33680079355780
H         3.64764833982871    1.63023217459722   -4.43131058998816
H         3.25609860782916    3.17928656468190   -2.08363512191633
H         4.80058252646773    3.16933018889381   -2.89767221070281
H         5.52771827464569    2.31718506835045   -0.73879044675153
H         5.36705518076331   -0.27638644603907   -1.31781767758328
H         6.14951791862461    0.71693228814431   -2.46522630409726
H         0.43813668701658   -0.53175890972692   -0.53019240877700
