33
 energy: -44.320261548951 gnorm: 0.133507306559 xtb: 6.4.1 (79825abcba525fcdf90b791dcacef51065a7a4e7)
C        -0.07254535603866    1.96499078690821    0.44392469287745
C         1.22652442635048    1.30621800182993    0.05757016067877
N         2.30099081166047    2.00365246354087    0.27041612734602
C         3.50951882679471    1.31315979783608   -0.25892503838323
C         3.83058978024602    0.20364943459536    0.78311171138583
N         3.24468691018795   -1.05877478527992    0.17965180468202
C         2.24925769514664   -0.92878577680973   -0.64738269977969
C         2.37773262006701   -1.71632414799802   -1.95551194733828
C         3.50941405023622   -1.14278149585290   -2.90528998442981
N         4.07471231332391    0.23506543631426   -2.82925225545043
C         3.35054890589937    1.45587187780589   -3.21006091355902
C         4.00736239160949    2.56268029021905   -2.35322624867658
C         4.63455830850901    1.83815120612247   -1.15717324323608
C         5.19563062376954    0.61192897646781   -1.94339930214929
N         1.32377779402053    0.12627310673620   -0.67847096057872
H         0.10176965468743    3.03274621670454    0.36637770115013
H        -0.26628107976403    1.76218156434110    1.49899456214213
H        -0.87398679866305    1.70035526788998   -0.26879435982336
H         3.07647311322138    0.77355008546879   -1.06650677417774
H         3.38668121992337    0.34665368083490    1.77716695218366
H         4.89450918301061    0.10534829225227    1.02300180586348
H         1.36632757505101   -1.70418786604097   -2.38018695178108
H         2.69942321997716   -2.73741692134197   -1.72589687328330
H         3.14188949952635   -1.44833723955136   -3.89715393907497
H         4.47590987509864   -1.65990394712853   -2.85041884157337
H         2.29785672513051    1.38579176243245   -2.91306690406679
H         3.17933267150799    1.45092786249692   -4.29218727223911
H         3.29326958134605    3.34264999123841   -2.07348602590690
H         4.85413228517583    2.92484423814423   -2.95091843202475
H         5.49432731015346    2.39254475815698   -0.77111149269058
H         5.48324485538497   -0.29264182469500   -1.40137589769598
H         5.99666467225105    0.99297094538250   -2.58758034600076
H         0.78197220317383    0.11913895758226   -1.54281291636856
