33
 energy: -44.342675073003 gnorm: 0.122705314879 xtb: 6.4.1 (79825abcba525fcdf90b791dcacef51065a7a4e7)
C        -0.12065782259169    1.93977650298405    0.32343525309500
C         1.22280390697346    1.28711686048944    0.12348612367457
N         2.27308952734335    2.05002754656850    0.09087296552098
C         3.48350316486974    1.30859530084166   -0.35934830667047
C         3.94173240345605    0.21115226867541    0.64344037731000
N         3.49861728985123   -1.09176442359860    0.00530399584715
C         2.38362826819421   -0.80308639796577   -0.59903613105700
C         2.22073422705604   -1.50294583366778   -1.95239747035777
C         3.54042162938751   -1.18858018578422   -2.77174585086942
N         4.13433790146736    0.17490030444806   -2.88124682640814
C         3.41544725808144    1.39954073786624   -3.25972840061071
C         4.05885119757740    2.54417298783341   -2.44336889258829
C         4.63753775502039    1.88429167905636   -1.18696989873860
C         5.15558448166935    0.59591310919057   -1.89990942605204
N         1.24579941554723   -0.05103105177051   -0.26679074844884
H         0.00337478705639    2.99884761081467    0.52214409596674
H        -0.56073967684462    1.55685400196705    1.24622225673841
H        -0.76932961447827    1.84375897836686   -0.56556099462164
H         3.01417609841672    0.73044077505632   -1.11853533108992
H         3.33648406317179    0.36428826971979    1.54669818272295
H         4.99073998438669    0.26273105002040    0.95337196775128
H         1.29348002308996   -1.18363966938957   -2.44400658901089
H         2.04954525538875   -2.58132238584228   -1.87093142188587
H         3.30838880164358   -1.53125813778116   -3.79202292486392
H         4.41966089009841   -1.71501366131810   -2.37887593197733
H         2.35103618253907    1.48398514039743   -3.01239118840179
H         3.52394505584206    1.58602583555893   -4.33387384634133
H         3.33190141919281    3.34601676683073   -2.28485566651732
H         4.91168808072504    3.02743451200034   -2.93788428539045
H         5.38100439026465    2.43277779476035   -0.60214602169247
H         5.33855718832124   -0.30666584999450   -1.31115492196681
H         5.99650879175048    0.88284276579604   -2.54204292157677
H         0.37257161688776   -0.54833931551123   -0.44242926284628
