33
 energy: -44.348199251592 gnorm: 0.119266636631 xtb: 6.4.1 (79825abcba525fcdf90b791dcacef51065a7a4e7)
C        -0.11370461119770    1.80726147272283    0.48506079739122
C         1.14620880450939    1.08571287773223    0.08155179916302
N         2.24649035681475    1.60409310345199    0.53636899142191
C         3.41377724323136    0.88878212292807   -0.04954369910724
C         3.36045864872586   -0.56456254278380    0.50262186080985
N         2.88768039547314   -1.41514247786765   -0.66105998634994
C         1.98673082466469   -0.83831239279198   -1.40087039687200
C         2.17653694411180   -0.91197538552321   -2.91957773968184
C         3.58893557056488   -0.41692611798087   -3.44091130916862
N         4.39552647758886    0.61727748723026   -2.73123529253227
C         3.90901994416153    2.00256331817350   -2.66727585959622
C         4.62144776026964    2.58477371585672   -1.42466887326469
C         4.79620781488103    1.41234118305990   -0.45321594800388
C         5.18467055147530    0.33538361160006   -1.51426901566020
N         1.07579312894482    0.11235385717090   -0.91398751648396
H        -0.70383645779723    1.23312461794264    1.19118556189714
H        -0.66060216887021    1.98269693591607   -0.44335882841010
H         0.23344140246455    2.75242692098794    0.93944028445855
H         3.06790834360346    0.77865139516481   -1.04911431682347
H         2.73546388975597   -0.62776257471551    1.40319842810451
H         4.34719547706295   -0.90688547656754    0.83171198804394
H         1.35077088350832   -0.34721476394839   -3.36968013314287
H         1.95891361487831   -1.95690095996136   -3.16372728621942
H         3.36241721026424   -0.15792359172416   -4.48677929117255
H         4.20529477764482   -1.31943325728513   -3.34029895981656
H         2.82068001323199    2.05915994056668   -2.55069752281495
H         4.18146027369983    2.46900971277071   -3.62044999392339
H         4.05040802676931    3.38370031055775   -0.94283301939611
H         5.61227907270495    3.01477403845729   -1.62157229101137
H         5.50723594466889    1.52414249097166    0.36991107232179
H         5.03414433700329   -0.69795403124179   -1.19129095454055
H         6.21273650020875    0.44201703950487   -1.87968311680996
H         0.49777611076294    0.47033251382377   -1.67453916865565
