33
 energy: -44.346730575208 gnorm: 0.127108302984 xtb: 6.4.1 (79825abcba525fcdf90b791dcacef51065a7a4e7)
C        -0.02791319991262    2.05249930639990    0.46531856189728
C         1.22269123156443    1.29022892303992    0.11068335628688
N         2.33006288437286    1.96466488824207    0.18181984853101
C         3.49099498499747    1.21820532719778   -0.37724808569959
C         3.86877293729223    0.16904359460909    0.70741033472381
N         3.33054897231387   -1.11759913794508    0.11073085813955
C         2.24301081460789   -0.95101635352768   -0.58300790717609
C         2.29597741941699   -1.54530903941356   -1.99436731230352
C         3.60152960406144   -1.16494285080921   -2.80836204414065
N         4.20159685208873    0.19930663453739   -2.85884657535753
C         3.44527498248445    1.37523366649321   -3.31158170537263
C         3.92335899237668    2.55814427223231   -2.43822459353905
C         4.57747125467449    1.88906967142113   -1.22441396523154
C         5.24182819946340    0.65650396118996   -1.91433145998526
N         1.22161106852688   -0.00428756760416   -0.40672420889903
H        -0.09066967209177    2.85788480815136   -0.25850236581911
H         0.14787061252802    2.49207228157273    1.44904270690762
H        -0.87880464060939    1.34806061546461    0.45765808273629
H         2.97873185299432    0.75381351241148   -1.18522223119604
H         3.33067580052731    0.45544934565876    1.62068689232189
H         4.93829110836836    0.06803286281168    0.91968983950253
H         1.36693680724216   -1.29205662325757   -2.51989853874783
H         2.40656782078750   -2.63458544172609   -2.00359008186163
H         3.25511767409091   -1.26651859542976   -3.84851293150018
H         4.44494802655539   -1.79790021394965   -2.50414009539154
H         2.37407125547307    1.34254843833606   -3.08194776789101
H         3.50962804698647    1.51979112677600   -4.39569365823893
H         3.08961423629570    3.22025478029354   -2.18719624978231
H         4.61882761121916    3.20215582858160   -2.99229177444903
H         5.32901186980089    2.42290838550239   -0.63636501682431
H         5.51244913889333   -0.09076033971666   -1.16391822121259
H         6.02415071211659    0.97452032272058   -2.61336996487894
H         0.34369395096668   -0.40046907653540   -0.74286845590842
