33
 energy: -44.334822081930 gnorm: 0.127795161971 xtb: 6.4.1 (79825abcba525fcdf90b791dcacef51065a7a4e7)
C        -0.08055496155221    1.91869705271187    0.35754244415596
C         1.29649905634619    1.34451485627862    0.14571526657670
N         2.34767064973579    2.10669074192259    0.12775844601851
C         3.52249465440098    1.30372722806965   -0.31105850793215
C         3.98273344238109    0.21530108193716    0.70059814303385
N         3.41206106309563   -1.04123412825899    0.07082576784005
C         2.31109533375278   -0.91357834446655   -0.60986578823893
C         2.18723741670143   -1.53096415145439   -2.00679764277203
C         3.49617352110544   -1.23427336491466   -2.84964592228901
N         4.14867413875606    0.10265605700079   -2.74635646505902
C         3.40145882073688    1.26749930788667   -3.24093277173579
C         3.82401088328065    2.48642718258720   -2.38872443014868
C         4.60353383706852    1.95258872339164   -1.18198486444788
C         5.18917843755657    0.67990607257175   -1.87036978144410
N         1.33052593627782    0.07434154336138   -0.42785829774875
H         0.22319494956480    2.85513192618411    0.81287379481836
H        -0.83209471874595    1.39676687970759    0.95303754953182
H        -0.50831556134408    2.18886885499727   -0.62446410656169
H         3.16661191208987    0.67600117017205   -1.09221339799943
H         3.55005741395859    0.32386919767724    1.70392025797169
H         5.05376178870099    0.16573450396126    0.92325550925119
H         1.29725842897640   -1.09258482349114   -2.47498273739795
H         2.01657467258398   -2.61003428079240   -1.93385753613337
H         3.36611255785779   -1.58701170813158   -3.88448529246512
H         4.30510805482162   -1.83154623520322   -2.40983835614512
H         2.31519730397021    1.14108175526805   -3.16791214033652
H         3.67497122525390    1.55198356022713   -4.26298784791679
H         2.97380790415645    3.10957714331933   -2.09653460649792
H         4.56168385265026    3.05296235422873   -2.97207202506356
H         5.32197096389122    2.69682825083664   -0.82764851483628
H         5.67028302382482   -0.12070605074072   -1.30263898487318
H         5.99750637989676    0.99651895919981   -2.53983222729438
H         0.45208070310336   -0.26626843180383   -0.81902325995104
