33
 energy: -44.346697439873 gnorm: 0.121338777542 xtb: 6.4.1 (79825abcba525fcdf90b791dcacef51065a7a4e7)
C        -0.04892192956987    1.82814070281328    0.62734856933054
C         1.21252067361195    1.16174686925162    0.14204915151214
N         2.35113762891388    1.56069004089997    0.62224912391767
C         3.43314145588879    0.77208605370786   -0.02958953541476
C         3.22736918181276   -0.68279309051614    0.48121849762433
N         2.80984763552635   -1.41290763875834   -0.78122732795337
C         2.03538380722911   -0.62483263639408   -1.46745331460924
C         2.12270780272826   -0.78277095894962   -2.98908225258936
C         3.67573277970032   -0.61070883337988   -3.25411137007031
N         4.48317166763997    0.54782794655892   -2.77490261187475
C         3.91392841367437    1.90269740813841   -2.78423639879469
C         4.39568158400456    2.55864846045310   -1.46961228256391
C         4.73915929125003    1.41040002768331   -0.51441151214607
C         5.31920320792647    0.41142553928865   -1.56425604723880
N         1.10923195021854    0.28871321589034   -0.93990665779459
H        -0.58792538966840    1.08041695019708    1.19908747051535
H        -0.64229748340391    2.12245383136692   -0.24047789780298
H         0.13956349975783    2.73208098099789    1.23370985467682
H         3.10003958694237    0.65912328219464   -1.03317214435502
H         2.41900814009268   -0.65703047512508    1.22387559614209
H         4.12531689386613   -1.19719555738163    0.83928955484351
H         1.59583219112292    0.01782275843126   -3.52283135309313
H         1.86221492696625   -1.77843861440789   -3.36275022802978
H         3.80703276628437   -0.62671088877554   -4.34715161313609
H         4.21591283453222   -1.49807622146613   -2.90009825566570
H         2.81967866652536    1.88890022044644   -2.84510201610611
H         4.25646519802992    2.48002112871594   -3.65009018458006
H         3.51371269806020    3.12627380882267   -1.15901894606575
H         5.29761793494790    3.18336098529841   -1.51039223669761
H         5.50194655244615    1.81459671107446    0.15669150708805
H         5.50398391381628   -0.58639399225919   -1.15808868347999
H         6.31957670037811    0.82039375443283   -1.74814630001391
H         0.18138374487831    0.40727385950478   -1.34700895756011
