33
 energy: -44.345961276461 gnorm: 0.121636034780 xtb: 6.4.1 (79825abcba525fcdf90b791dcacef51065a7a4e7)
C        -0.05480796297671    1.98885040523821    0.31223449836058
C         1.29532602012814    1.34712353737436    0.12208047120165
N         2.38569073539774    2.05032847252940    0.17503181018344
C         3.52875351393350    1.24426340779155   -0.33603449093433
C         3.94206440910226    0.17868468732295    0.71926475598267
N         3.39251516889251   -1.07266805750187    0.06103007454485
C         2.30799803941102   -0.87154544105711   -0.62827016455148
C         2.28048549161336   -1.49161191756163   -2.02922885467359
C         3.63084362450892   -1.20395674326065   -2.80738037539451
N         4.21704119698522    0.16673696095268   -2.84449143796126
C         3.34260030177645    1.28137857969003   -3.23528990277065
C         3.82546513448300    2.49003609261559   -2.40067439940470
C         4.59978866413747    1.88773002325685   -1.22317264256658
C         5.25053468158076    0.64137265190619   -1.90118256273909
N         1.27878913393191    0.05664136311807   -0.40505042922989
H         0.13397723418214    3.05019387135655    0.19218821430173
H        -0.51006820503610    1.85743080517148    1.29575091083335
H        -0.93431701377046    1.81377871633314   -0.33284108974964
H         3.04953368813088    0.69302400779370   -1.10893744386541
H         3.38561100643111    0.33038927632054    1.65360740243632
H         5.01780542801211    0.01096333936697    0.83667721001274
H         1.36780002115477   -1.00492558545775   -2.39471205369204
H         2.11316332259996   -2.57351476907760   -2.04733650018499
H         3.38137408245516   -1.39525797067062   -3.86255880211311
H         4.32371823327734   -1.92766793354156   -2.35937641952485
H         2.27835304346665    1.11811544276485   -3.03034987268035
H         3.36547527964392    1.36656803926288   -4.32733220797111
H         3.01591853845340    3.10069392956394   -1.99047056158666
H         4.52186271040019    3.13824766986750   -2.94864346223839
H         5.33173962224916    2.51700142503903   -0.70949576859583
H         5.57791057942721   -0.07122310113566   -1.13974184242150
H         6.07425828747063    1.03246493087762   -2.50974151688892
H         0.34257860654392   -0.27153107325631   -0.64275592314088
