33
 energy: -44.337423539790 gnorm: 0.125518578719 xtb: 6.4.1 (79825abcba525fcdf90b791dcacef51065a7a4e7)
C         0.01482180168284    1.83519230620846    0.50809655578176
C         1.36610863548626    1.31973787386348    0.08481848384205
N         2.36822101918279    2.14536088142974    0.10252841851940
C         3.53928176537010    1.31700628965211   -0.29743103034402
C         3.79796086370011    0.20896395701431    0.76335532940103
N         3.36877044435783   -1.06857409174820    0.06704142256822
C         2.28675441690626   -0.89681309668360   -0.63403060547567
C         2.21682743053525   -1.51466146319443   -2.03449417893418
C         3.56466946995533   -1.15535895165237   -2.78679458662682
N         4.22548548558451    0.17354969609845   -2.93215633925856
C         3.35183044537534    1.31922490857109   -3.22190006887334
C         3.92677907012691    2.49947215597129   -2.40517185452279
C         4.63934970003818    1.91609216665223   -1.18011234893659
C         5.17510940078435    0.63902891360704   -1.90028281841780
N         1.26225947426693    0.05102826356679   -0.48357922472351
H        -0.03196919190065    2.73610377870826   -0.09412436743274
H        -0.01936901507428    2.11049240679769    1.56397456835503
H        -0.82395346046781    1.18928795901385    0.19254556868378
H         3.07387189900540    0.72532040544442   -1.04856148866399
H         3.28514230794545    0.54315260013933    1.67493962180039
H         4.84150791074501    0.07017982031696    1.06482405384277
H         1.32568042728157   -1.07778759266504   -2.50186400173067
H         2.13348909109568   -2.60352489541076   -2.11367442463251
H         3.46015197354956   -1.57919610929739   -3.79757194810522
H         4.25292986268591   -1.89617394094851   -2.36014316367802
H         2.27867915941175    1.16046089609129   -3.06563812196707
H         3.39953147267725    1.53464346278079   -4.29505260294546
H         3.17786850614984    3.19627234679523   -2.01769497548654
H         4.61194627295802    3.01127926775778   -3.09366100295490
H         5.30810188303781    2.69003136712579   -0.79360587508307
H         5.56343388665955   -0.11907528609218   -1.21527058072568
H         5.96255877367407    0.92210489404251   -2.60852657879117
H         0.41858811136825   -0.16679693510124   -1.01410915462090
