33
 energy: -44.343233138819 gnorm: 0.131233785807 xtb: 6.4.1 (79825abcba525fcdf90b791dcacef51065a7a4e7)
C        -0.07509280252812    1.89570366910066    0.73199477749004
C         1.22361011475813    1.33309029541210    0.21462584981896
N         2.28784785445977    2.07592606150395    0.25692564963507
C         3.41496595875425    1.35844623304024   -0.40060733917170
C         3.77861484421827    0.27219472381694    0.65189327886469
N         3.35987763440009   -0.94737760028200   -0.14714579735293
C         2.24430485665116   -0.75567923892893   -0.78785761718376
C         2.21415371203249   -1.48031470876864   -2.13764239199171
C         3.66094825968340   -1.25723666759300   -2.74489364916879
N         4.30112726810374    0.08765924574298   -2.81722529965215
C         3.54225391680900    1.23589145837236   -3.33246337751052
C         4.01873903763538    2.49461025702996   -2.57142239298352
C         4.55435693039089    1.92979793663554   -1.25121012874944
C         5.22309288579449    0.62948269375194   -1.79760468353793
N         1.18696451709227    0.07166196184984   -0.37777631375382
H         0.04646900570145    2.90315209806708    1.11510219597370
H        -0.30191136177588    1.25553494001802    1.58673150820097
H        -0.89309843904595    1.80243144350543   -0.00453482650352
H         2.98632970047409    0.81152932030344   -1.20562183361528
H         3.12111375545173    0.29500872735879    1.53099662342138
H         4.81638829810209    0.30377502987417    0.99997920483087
H         1.35169495513705   -1.08597902876640   -2.68909553645634
H         2.10581521494544   -2.54897340336526   -1.92534604792394
H         3.55974952942002   -1.55407925386711   -3.80029689756713
H         4.41542058648575   -1.89433956511978   -2.26592386249046
H         2.47705521648451    0.99099881671972   -3.41405268409614
H         4.01475988141162    1.27456789364063   -4.32017748286321
H         3.15001109934466    3.15108913833113   -2.46710020963929
H         4.77893979003774    2.97292810273326   -3.20286896877372
H         5.21194860198159    2.64428689809212   -0.74853991617100
H         5.58578544754733   -0.10245893624516   -1.07132979904548
H         6.05976146521550    0.91696656477211   -2.44502762228272
H         0.28217251233499   -0.14716489965092   -0.79509804096648
