33
 energy: -44.337136283123 gnorm: 0.132570896726 xtb: 6.4.1 (79825abcba525fcdf90b791dcacef51065a7a4e7)
C         0.03638321611326    1.99459155343514    0.41333943681622
C         1.23125685113976    1.22427537819869   -0.08638419974424
N         2.35068813394998    1.59590834131708    0.45671689363765
C         3.38354223752300    0.66978228189818   -0.08460104031503
C         3.32533781330458   -0.76158529602275    0.52181425675466
N         2.74096430079804   -1.57736020055907   -0.61580600529407
C         1.99761160983186   -0.80298191407925   -1.35033141949528
C         2.18727211409531   -1.04073313673814   -2.85213961797981
C         3.52250071193041   -0.37693008212678   -3.38904039868368
N         4.35528533454114    0.69076168457139   -2.76429236805844
C         3.84201193881235    2.05384618902168   -2.56846768783202
C         4.54304615252299    2.60323956122716   -1.30461942906444
C         4.71196738873728    1.33152460458547   -0.46612876076682
C         5.24821424646803    0.42427297654698   -1.61760968455305
N         1.04192203124604    0.14150785022732   -0.94385228550766
H        -0.11719818437786    1.55490478801014    1.39292568729066
H        -0.85210386746013    1.90367269723627   -0.21448379046610
H         0.43698162594207    3.01518053125514    0.54835001442343
H         3.08525567432468    0.62761303420308   -1.10447474621546
H         2.71272642914780   -0.78837151224337    1.43266037015450
H         4.34155192873502   -1.10087094978969    0.74837328470996
H         1.32436920927016   -0.66272302481396   -3.41422790334283
H         2.23035940891881   -2.13273527789312   -2.91931987259257
H         3.30576183653802    0.17989670153669   -4.31381113395500
H         4.33474814627130   -1.08204018268617   -3.60724786952389
H         2.76028923783337    2.09284471240811   -2.39632644768665
H         4.18404213122390    2.58942079317666   -3.46094295098005
H         3.89713049024361    3.34182642910316   -0.82107184239971
H         5.53369047396395    2.99190990261865   -1.57476220666541
H         5.32008351565709    1.42473464170954    0.43781000988685
H         5.35498747197795   -0.66117379422012   -1.54574563479491
H         6.20123385061249    0.89159840527095   -1.89179634983071
H         0.29172635401317    0.34495764139174   -1.60453816906075
