33
 energy: -44.347690619079 gnorm: 0.116062880591 xtb: 6.4.1 (79825abcba525fcdf90b791dcacef51065a7a4e7)
C        -0.06219264201767    1.92648340783094    0.46629023290296
C         1.25544945472575    1.31258119735684    0.06907859037518
N         2.24843023695457    2.14918059369481    0.05214179130488
C         3.46362016508033    1.35577303537131   -0.28153477077569
C         3.79580227126426    0.29663064731464    0.80833350069322
N         3.41918545361877   -0.99422844188025    0.10619139655989
C         2.38982275370027   -0.82979449472256   -0.67171376280161
C         2.31617485169513   -1.57279394281074   -2.00979164076256
C         3.53088113548357   -1.16863964445511   -2.94407227196135
N         4.18404123282855    0.17187445262716   -2.95855951471991
C         3.46625520842961    1.40365202399427   -3.31535565242525
C         4.02435403575545    2.52299767122550   -2.40640819284178
C         4.61475316139032    1.80635684437408   -1.18709908280284
C         5.13080290990931    0.50286492701729   -1.87352169072422
N         1.29447082893613   -0.02592476343709   -0.31868914848482
H         0.07545400016075    3.00033275690877    0.39994347266648
H        -0.18689333872774    1.62403376858868    1.50783307735731
H        -0.92950703227871    1.63986928306386   -0.15493990243938
H         3.06177385437126    0.74537087389988   -1.05407877481119
H         3.08597392829664    0.44170067484148    1.63340880865225
H         4.81295262501980    0.39065437020368    1.20292134217345
H         1.31554716246304   -1.39294028199968   -2.42189987212358
H         2.45135790872289   -2.64690871424938   -1.84595827357298
H         3.08911724989573   -1.21946265733104   -3.95129340521164
H         4.37384562605698   -1.87023475794869   -2.90264993526968
H         2.37941759721457    1.31827835827322   -3.20233868512990
H         3.64396629853218    1.60478260852808   -4.37757133588751
H         3.13933256159376    3.09336366871837   -2.10983528248103
H         4.76410448532415    3.07067211397635   -3.00493964553475
H         5.41289145464665    2.31325017281888   -0.63788778653573
H         5.42967760406304   -0.28721476310883   -1.17983036809774
H         6.05003944300369    0.69865963135773   -2.43786766466149
H         0.38558552638877   -0.28067466208530   -0.70562738894063
