33
 energy: -44.346392819695 gnorm: 0.130066354142 xtb: 6.4.1 (79825abcba525fcdf90b791dcacef51065a7a4e7)
C        -0.03445991761693    1.92869108676776    0.61081504856479
C         1.27508251905819    1.34362062103785    0.14861935272662
N         2.30379307512139    2.12863898198722    0.25677203857941
C         3.43181270249611    1.36066917944217   -0.33931208098804
C         3.78422769399752    0.26934241352358    0.71175879058569
N         3.40547538918046   -1.00457791287782   -0.01956511168818
C         2.31033816691655   -0.84422984968288   -0.70273822077227
C         2.30036493664620   -1.60483817181239   -2.03288863440636
C         3.60823029982136   -1.23347374625043   -2.84732649249477
N         4.19562491088108    0.13719964678127   -2.85262483199621
C         3.43247278011992    1.30880528388067   -3.30510169568560
C         3.96790285125108    2.54501062376653   -2.54634912416358
C         4.52265684001314    1.88175983019218   -1.28096131388523
C         5.19070848095895    0.59590350997046   -1.86135347096263
N         1.28023250020860    0.04841843695589   -0.36704474883013
H         0.22068752537207    2.77248116018225    1.24281109897811
H        -0.62607773241222    1.24045151994574    1.21757051537961
H        -0.62748256856430    2.18567259001253   -0.28506074556870
H         2.97455598691101    0.78080539865317   -1.10453739790913
H         3.16867389409151    0.54410987888897    1.57850397395930
H         4.86874691347697    0.21339257834841    0.85255138765628
H         1.40142326711661   -1.32028162852599   -2.59357371675903
H         2.24583877367407   -2.69301876561581   -1.92459154216206
H         3.53002907845584   -1.59123465178347   -3.88565419739729
H         4.40983883118366   -1.77969082455895   -2.33389555866348
H         2.34895446683699    1.16125886935043   -3.23096928759569
H         3.73200270704528    1.46051668266473   -4.34798346307466
H         3.23457537550821    3.28512665981410   -2.21319009389143
H         4.77335191299936    2.94723991918204   -3.17474496140038
H         5.20662772570641    2.61822848556147   -0.85038451388861
H         5.36133007852495   -0.19649377602149   -1.12803603028547
H         6.00808637810737    0.91474766792128   -2.51865821597386
H         0.39643946862333   -0.31594892539601   -0.72318728386867
