33
 energy: -44.340848088876 gnorm: 0.114146136737 xtb: 6.4.1 (79825abcba525fcdf90b791dcacef51065a7a4e7)
C        -0.05641754276934    1.88602390364751    0.27869032324948
C         1.29017482849880    1.26802591046298    0.00373367170997
N         2.40573252759229    1.58725001100909    0.58667724436768
C         3.49626185740206    0.74272623070721    0.02538631513028
C         3.43024373072538   -0.71796953919185    0.55637581183680
N         2.78673837100492   -1.44349718311583   -0.61010240104481
C         2.00994941054872   -0.75804695923549   -1.39656245274478
C         2.03854775714978   -0.93021202871093   -2.91888499394742
C         3.50864178206000   -0.49456957036101   -3.31984830337907
N         4.28250032273700    0.62787028898215   -2.71563165079553
C         3.82453947926537    2.01907421014803   -2.59471944742693
C         4.45339967959385    2.61509373709335   -1.31413753650621
C         4.79512171340571    1.35952227387202   -0.50443002693950
C         5.25663836656625    0.38355868115254   -1.63184829784354
N         1.13963257891040    0.23513803515919   -0.92036824253318
H        -0.86537463170448    1.16400815593911    0.30666521470983
H        -0.33553001248388    2.46950967950294   -0.60078572246764
H        -0.07539466205629    2.43653973358755    1.23622934570195
H         3.09430552863014    0.57206762014514   -0.94425394772558
H         2.90154721374083   -0.89296225494552    1.50268885631601
H         4.37903376051316   -1.24378086973676    0.70622502884535
H         1.32299451903505   -0.20898664298526   -3.33271323812403
H         1.97795094868564   -1.95136247021410   -3.30929268771247
H         3.42745302666950   -0.41911461757021   -4.41526952564009
H         4.24755084880235   -1.28110790238831   -3.12006968494451
H         2.73455192292758    2.10257083919014   -2.51577053718639
H         4.22951377916277    2.46739281813046   -3.50869053265324
H         3.73780617404587    3.23508546560354   -0.76634920171530
H         5.32932080543238    3.24173909993027   -1.52743472384396
H         5.62897187295976    1.52317068122000    0.18369185836774
H         5.39003217420255   -0.61445193176083   -1.20647721463814
H         6.24209928947639    0.72250845037328   -1.97213871651127
H         0.48456991224456    0.49983725056111   -1.65624760322366
