33
 energy: -44.338336227357 gnorm: 0.130222579128 xtb: 6.4.1 (79825abcba525fcdf90b791dcacef51065a7a4e7)
C         0.01990888489779    1.85097002023869    0.55879073827386
C         1.25539842264945    1.23267547418502   -0.04296598448038
N         2.38870275407250    1.64311740063458    0.44010228168661
C         3.46783391049560    0.78089157116275   -0.11628313830606
C         3.30888873125440   -0.64928330364167    0.47471319255034
N         2.84740124799635   -1.42748385549480   -0.74290503857109
C         2.04335313363200   -0.69007341499034   -1.45106815211964
C         2.10992893120436   -0.82775639988142   -2.97571095667619
C         3.64830179945516   -0.57495541265741   -3.26072493116955
N         4.40827335226187    0.56360526255941   -2.66917705332683
C         3.74625674853770    1.87392130391015   -2.60133791445995
C         4.33756416931171    2.56861535173793   -1.35299894397081
C         4.82058365602209    1.38610293904596   -0.50611259371022
C         5.32427358641244    0.32534693416892   -1.53454231016420
N         1.11891474321763    0.29263514660883   -1.06334879155627
H        -0.35608329892210    1.11187461545576    1.25798225080757
H        -0.79184221052064    1.97965353010701   -0.15977606340976
H         0.20179107379348    2.84967352661528    0.99447292201311
H         3.13875728040018    0.54443079880437   -1.09948727186917
H         2.61205053229782   -0.63550295511524    1.32316912925403
H         4.30541189321286   -1.00342332629101    0.75872253462777
H         1.51178597265008   -0.05266640845241   -3.47058146601844
H         1.87002195452791   -1.82867150372219   -3.34914364545459
H         3.75094206530235   -0.40972392892276   -4.34442057914552
H         4.23739409454488   -1.46199859268725   -2.99489543224848
H         2.65286890581878    1.93733137327350   -2.64328649414028
H         4.02430304364378    2.53182935417214   -3.43211114523574
H         3.49118755631522    2.99128360899145   -0.80387778317575
H         5.18445319785552    3.25489224485576   -1.48422747113060
H         5.50748283585244    1.73797576274196    0.26845416619506
H         5.24452079170589   -0.71343023059458   -1.20387457428547
H         6.38494947574594    0.54570948151913   -1.70254455847879
H         0.25508190747171    0.50599692165034   -1.56230848973867
