33
 energy: -44.344383387835 gnorm: 0.129067317109 xtb: 6.4.1 (79825abcba525fcdf90b791dcacef51065a7a4e7)
C        -0.04813351636440    1.91257872050076    0.52208252746838
C         1.19128795543096    1.21610739223143    0.02248690264044
N         2.27703512225251    1.53807026648813    0.65785232777212
C         3.42227146678911    0.83311466338852    0.01832635287511
C         3.37202825723224   -0.64854750752446    0.48959403580770
N         2.92669941330209   -1.37913195129833   -0.76303900621564
C         2.02356365013875   -0.75003439694626   -1.45610796669703
C         2.11393341055637   -0.79459630986668   -2.98508545342069
C         3.63753623114283   -0.52059234104686   -3.32462727773052
N         4.46938203631542    0.53902034705664   -2.68504963173749
C         3.86227637607179    1.87701397294511   -2.71654623164071
C         4.37251648653410    2.58286526535910   -1.43903949874983
C         4.73446880545651    1.40117621865542   -0.53269440571846
C         5.35017804407859    0.35422104226025   -1.51318485051761
N         1.13919813813432    0.21192474587785   -0.94311577223958
H        -0.77639203038634    1.20753753496706    0.90816201000629
H        -0.63476432327797    2.54986180693978   -0.14242638111555
H         0.30488805540192    2.52395662557491    1.37173046846667
H         3.03904998623379    0.67370366937828   -0.96076757850031
H         2.62041742984990   -0.78783736851653    1.27783914242182
H         4.30890664287349   -1.12236639602097    0.80086469352598
H         1.50902775311120    0.07635677235660   -3.26609469723488
H         1.88133067532879   -1.72473212713448   -3.51384030939955
H         3.57899658047074   -0.33775391868180   -4.40877484426151
H         4.12882916646626   -1.49681192736315   -3.22379460143779
H         2.77122698235447    1.78356447116301   -2.76297797999559
H         4.21203727265983    2.40963192586315   -3.60779386141507
H         3.64773310812999    3.24299083743603   -0.95379816081411
H         5.30093034190371    3.10261505216166   -1.70982686689958
H         5.47169541318001    1.67314064390912    0.22765479676050
H         5.26319776731712   -0.66008852337365   -1.11522732485436
H         6.34455307975154    0.61096995359655   -1.89674193031334
H         0.23298147281640    0.16667714074243   -1.40939381213101
