33
 energy: -44.347257529443 gnorm: 0.119419189160 xtb: 6.4.1 (79825abcba525fcdf90b791dcacef51065a7a4e7)
C        -0.09328267145788    1.77038242999299    0.64941251940094
C         1.20584323410218    1.19474892296075    0.14766393328539
N         2.30827408161346    1.81262364281528    0.44611540518861
C         3.44826654056750    1.03994084259252   -0.12036552343608
C         3.45753389190324   -0.33915880480058    0.59931404403709
N         3.06163435506819   -1.28709047401789   -0.51686249379433
C         2.05867831251443   -0.79443028338279   -1.18254082910286
C         2.13968379037804   -1.00557604872160   -2.69805400767081
C         3.62200575312473   -0.76040947016426   -3.20238258700745
N         4.34320098667913    0.49621708554680   -2.84943331562663
C         3.76297925820848    1.84296557553233   -2.94642561330254
C         4.45716940486971    2.61487592932957   -1.80062942235311
C         4.75465383284599    1.55885985064253   -0.73049253160209
C         5.20858673867108    0.38730351359183   -1.65676203227934
N         1.08842145483704    0.10589304276643   -0.71494239423949
H         0.07426207060595    2.76684971300523    1.04372536646028
H        -0.52637215385576    1.19902614980346    1.47271260802375
H        -0.86980444094738    1.93077367397740   -0.11974115720656
H         3.00109470980984    0.84725988047235   -1.06577913280305
H         2.76071865668506   -0.40071259435665    1.44566533520139
H         4.47188160971339   -0.70038534477916    0.79868548307622
H         1.30437627343100   -0.51883657099801   -3.21649623404102
H         2.01600655552257   -2.08147656467134   -2.85923838149979
H         3.52110990890595   -0.78694793338355   -4.29844301368594
H         4.28379787708258   -1.55203398190920   -2.82834719817715
H         2.68203254256256    1.66273033659978   -2.96505222837508
H         4.05810202271220    2.22936226896035   -3.92822857398837
H         3.96020031511009    3.52273994734645   -1.44659479291792
H         5.43272326092804    2.96527349411765   -2.16247765816348
H         5.51001374192193    1.98475235460445   -0.06442526128122
H         5.01332097656520   -0.60912302638459   -1.25208303691415
H         6.28271779732536    0.49090306096175   -1.84996490534917
H         0.29567870434924    0.04002557455725   -1.35362197462993
