33
 energy: -44.335077332831 gnorm: 0.123630889239 xtb: 6.4.1 (79825abcba525fcdf90b791dcacef51065a7a4e7)
C        -0.04336700064470    1.97064416312831    0.52591940353358
C         1.23800562373682    1.28502030332605    0.12737477594364
N         2.27622987101716    2.06491276870620    0.13474979415382
C         3.44095242778725    1.27165178629613   -0.34658225950033
C         3.83919606490739    0.15674304021611    0.66253661219642
N         3.34293933085768   -1.10575659826338   -0.01642205607165
C         2.28060045580788   -0.86011994427466   -0.72554918421942
C         2.16703753755254   -1.45579249281806   -2.13274579103850
C         3.53288226361073   -1.06312459417087   -2.83418180152040
N         4.32126849361441    0.19880081232837   -2.93316396794894
C         3.51389601538897    1.36398349414267   -3.32084329137506
C         3.95184154275562    2.50446119630863   -2.37315727010045
C         4.60763629639479    1.86061519578279   -1.14667633399103
C         5.24385477364042    0.62743343406275   -1.86156325761574
N         1.22654317274850   -0.04954088251002   -0.27548963916479
H        -0.88955269341711    1.30708135953949    0.38395078913278
H        -0.13463584295729    2.84768360971865   -0.11774925966828
H         0.07893808778278    2.29043335861735    1.57619800066432
H         2.97704880644466    0.89308547138852   -1.22543177322230
H         3.39420011717084    0.24138918800728    1.66276882842098
H         4.91936588539122   -0.01677081010975    0.71008636371264
H         1.26195026651983   -1.05992693107073   -2.60976130443245
H         2.14641606072200   -2.54999134292070   -2.16653932193644
H         3.30986500560382   -1.26069630229831   -3.89411644429300
H         4.16990742488778   -1.80321895749512   -2.33318286464745
H         2.48740578073124    1.00520651357892   -3.18345925718452
H         3.65126337701365    1.65929002129512   -4.36691268075026
H         3.14228569519537    3.18654718354557   -2.09763248160798
H         4.81702902371723    3.01255739258010   -2.81892268685649
H         5.26175523606828    2.55196577969840   -0.60838142103787
H         5.54725164407237   -0.22083873111927   -1.24257672488540
H         6.21276712757356    1.04279756589365   -2.16239416592326
H         0.38832816520709   -0.52553389367314   -0.60943193615219
