33
 energy: -44.346546939756 gnorm: 0.127665820233 xtb: 6.4.1 (79825abcba525fcdf90b791dcacef51065a7a4e7)
C        -0.06901627115913    1.73100741814375    0.65821424606314
C         1.18950468430097    1.16240103606433    0.05518400274528
N         2.34266663497011    1.54758494850354    0.51130579189753
C         3.43077539133251    0.72966454336370   -0.09247206779814
C         3.20313917008161   -0.72160296939578    0.41933331753551
N         2.74138392143316   -1.40734228634946   -0.85255686093346
C         1.93921602044403   -0.65636286436673   -1.54848723271783
C         2.07056183009972   -0.71192248479363   -3.07413005001631
C         3.59226741843699   -0.37024224465377   -3.35590847245480
N         4.43207216291822    0.59160959728242   -2.58560004871366
C         3.99199449806353    1.99249944833130   -2.64589537459923
C         4.63574868118462    2.58316758378825   -1.37024410154368
C         4.77656831268356    1.37813952765201   -0.43379489251827
C         5.32068735057862    0.31427684125790   -1.43813805107245
N         1.04153238110425    0.28225137989855   -1.01576204870542
H        -0.62286008588515    2.10274252105265   -0.19710496491700
H         0.23867824030498    2.58961249651737    1.25818003266240
H        -0.65009282454223    0.97979201188879    1.22242541348106
H         3.19823184382787    0.71983215182002   -1.13012437650336
H         2.46133156199584   -0.70230292372564    1.22865391372876
H         4.15085914039784   -1.20195193112929    0.68433634387580
H         1.36105725683673   -0.01270333951198   -3.53362123935522
H         1.87157284568433   -1.74902390377307   -3.36337458947003
H         3.57512830329188   -0.06638305909068   -4.41402404490368
H         4.14726126595716   -1.31163466227886   -3.25440576494895
H         2.89610949654445    2.00370611771444   -2.65960549367075
H         4.42429296406325    2.43560282577682   -3.54983914332333
H         4.07540815990455    3.33789517735756   -0.81083313417156
H         5.61243334503542    2.98667269554673   -1.66805044140755
H         5.46403152599011    1.54990076798698    0.39896619791309
H         5.24754363314395   -0.73289645180170   -1.13344518361326
H         6.38941101860190    0.51107106118573   -1.58277380640537
H         0.10729040860244    0.18346845048270   -1.41341146659774
