33
 energy: -44.340844450085 gnorm: 0.102260592360 xtb: 6.4.1 (79825abcba525fcdf90b791dcacef51065a7a4e7)
C        -0.08557438116456    1.58598741254367    0.74719515962315
C         1.20559775953753    1.09350202619926    0.14622399626397
N         2.35866071555589    1.53596705987816    0.54730594799273
C         3.47351550410532    0.81403933799155   -0.12607456406231
C         3.22591627001326   -0.61458323866871    0.43754990459139
N         2.67094121205819   -1.27436356208411   -0.81059012945689
C         1.83669005012707   -0.59291345075543   -1.53957109981321
C         2.07650611179375   -0.68106341065698   -3.05041272707310
C         3.63091562608176   -0.54592598484877   -3.32840783301927
N         4.48628983550490    0.48615138511143   -2.67498814558911
C         4.05229076270126    1.89001376715715   -2.69971579306551
C         4.48111069973675    2.54875253933390   -1.36826126910146
C         4.86113732638340    1.36168453704974   -0.47646015706358
C         5.38723137500489    0.32225284826838   -1.51539293888032
N         0.99955254460542    0.42722755294439   -1.06088344741632
H        -0.24268495694217    2.64711837425943    0.58651456772834
H        -0.10644755214270    1.44569155799990    1.82965482104172
H        -0.98249612055918    1.09753917150537    0.32617438052621
H         3.22160786150087    0.69630623031602   -1.15251352493155
H         2.49377798491002   -0.48569051279204    1.24564088932549
H         4.07390496820885   -1.20422145289689    0.80138614131892
H         1.51631232742222    0.16109529408791   -3.47513374650682
H         1.73768484604798   -1.64250326053440   -3.45000242251140
H         3.78127247005914   -0.41940142778337   -4.41174391465890
H         4.19940112157273   -1.44587016354083   -3.06107777363493
H         2.97682460845488    1.88361457654716   -2.91092443472443
H         4.63742326167801    2.42120936052878   -3.45852281778635
H         3.74269512669238    3.21337023100139   -0.91048224768430
H         5.30269714462570    3.21759376839665   -1.65647133974678
H         5.51868926446126    1.60637767842189    0.36219909061358
H         5.48422791751581   -0.70124274935291   -1.14416783482439
H         6.39245871762381    0.62803292556694   -1.82817765081516
H         0.15630608600058    0.68954243054545   -1.57158639354153
