33
 energy: -44.337922679440 gnorm: 0.134825577768 xtb: 6.4.1 (79825abcba525fcdf90b791dcacef51065a7a4e7)
C        -0.10105372428258    1.85817805831671    0.37418246743784
C         1.27322771713457    1.29815720085212    0.11234114954348
N         2.29327907665474    2.10170390485919    0.11438123457340
C         3.45040877419138    1.29894547265000   -0.36951125551341
C         3.89414139136920    0.25517179254623    0.69518507955954
N         3.47036270023205   -1.05769086031806    0.06434101257625
C         2.31710826024598   -0.95860189494088   -0.52891114283588
C         2.25572525041707   -1.57231888104114   -1.93159008477412
C         3.42757335748594   -1.06030135117109   -2.86772171478972
N         4.15339263586998    0.24238524962346   -2.86751811516733
C         3.43692861697196    1.44456430141931   -3.31611714765342
C         4.04664190414841    2.54984239834677   -2.42325405332576
C         4.62263985794005    1.85745573066347   -1.18321898261462
C         5.16494221063214    0.54652368603100   -1.83432562552651
N         1.28897560777197   -0.05903883364377   -0.20586575117014
H         0.08621872857065    2.92402572912775    0.44765823798318
H        -0.80744879482567    1.44272508601548    1.09546075150977
H        -0.58025786905372    1.93243634701987   -0.61836873832972
H         2.95689650083959    0.75179779317396   -1.13630363207771
H         3.34065388702507    0.42615677365736    1.62795867182599
H         4.98229499971979    0.22081687036931    0.81298296789007
H         1.28404128793759   -1.31006655383347   -2.36804204220958
H         2.45779024821085   -2.64569765985334   -1.85499953453814
H         2.98806645759940   -1.04992847781011   -3.87715661124606
H         4.23008212137631   -1.80632756609652   -2.80475167449674
H         2.34567482315586    1.44701810303259   -3.21395732372457
H         3.76605269217851    1.56220412879653   -4.35446926511864
H         3.31454639036524    3.36164652115062   -2.38393360714062
H         4.84055426524846    2.94229876734532   -3.07217553467874
H         5.33526721698634    2.45032613552635   -0.60333488607105
H         5.43354728772014   -0.30440437830678   -1.20303140191278
H         6.16617842603843    0.76173633970842   -2.22551266917462
H         0.41747794830880   -0.49012114385312   -0.51465545872344
