33
 energy: -44.341294159225 gnorm: 0.129269946205 xtb: 6.4.1 (79825abcba525fcdf90b791dcacef51065a7a4e7)
C        -0.01194352289750    1.95963768154935    0.33044847464082
C         1.34916468910275    1.32823426745471    0.19063470140956
N         2.39636195574761    2.09456689368704    0.23868092253657
C         3.54990968600097    1.30457267177528   -0.27391925220883
C         3.83897095698051    0.19620117776558    0.77864743244265
N         3.40663472840936   -1.03642656523649    0.00736590514486
C         2.30455246517978   -0.83842286465866   -0.65442844987328
C         2.25010060880327   -1.60742774757588   -1.97866072290074
C         3.49251363558943   -1.15690830227355   -2.85340324043757
N         4.11735141597571    0.19669467227321   -2.88720827350467
C         3.43963387709647    1.41585100043805   -3.34997499202248
C         3.88836725501922    2.51536141557871   -2.35986910543462
C         4.64035189229405    1.85723808899479   -1.19786535945051
C         5.19418910432258    0.61686078828641   -1.96682765800933
N         1.26086555178358    0.00802697815979   -0.24838772459213
H         0.00006231711234    3.01606637676282    0.08485697568490
H        -0.59032022531099    1.77211289676968    1.23717466424993
H        -0.68989709390629    1.61146441025517   -0.46921591028661
H         2.99800685099007    0.73606377764436   -0.98321213573378
H         3.28527146836068    0.37597222511332    1.70964157870289
H         4.92921053542656    0.10989913760581    0.83400535250917
H         1.31143576514274   -1.28746953978806   -2.44767178482866
H         2.30087796969614   -2.69359122206085   -1.85017360150426
H         3.19078407754572   -1.53504159007008   -3.84244682350668
H         4.33453080244980   -1.79472788107246   -2.55552082702188
H         2.36754949176718    1.28188968603830   -3.53427617877149
H         3.91621109263028    1.65459203967654   -4.30716555792017
H         3.04671874990080    3.16873400170278   -2.11234551303986
H         4.59622948548836    3.20396134692916   -2.83963896963191
H         5.38726886450546    2.43311643845555   -0.64462237885337
H         5.38707817244244   -0.24873512053886   -1.32784629205001
H         6.09272433917819    0.83129361848098   -2.55714176065955
H         0.33774574536685   -0.36421857854530   -0.47193699213567
