33
 energy: -44.335392419189 gnorm: 0.126825433449 xtb: 6.4.1 (79825abcba525fcdf90b791dcacef51065a7a4e7)
C        -0.10964553105477    1.80447719034373    0.57992467805714
C         1.25406176481398    1.36488711482419    0.11313062820135
N         2.35193387192470    2.05172850345076    0.20863967890541
C         3.49241714189854    1.30116311335105   -0.38589515500021
C         3.81721997057167    0.27251194961082    0.73496179827452
N         3.39824959327469   -1.03058999007322    0.08108863317467
C         2.31924906414936   -0.81265375059073   -0.61174914603469
C         2.24274901293848   -1.43158021654047   -2.01139281642036
C         3.60058779757836   -1.19088199841097   -2.79246296366241
N         4.17956268605201    0.18238055055383   -2.84484712998501
C         3.46718885082556    1.35576365726227   -3.36972031041687
C         4.02189548061744    2.53445369737766   -2.53690291758957
C         4.59896516437875    1.84706790054299   -1.29458602708002
C         5.26114510339190    0.57926996828836   -1.91971053566596
N         1.24683963635702    0.06715836440828   -0.39611649803296
H        -0.42091861384331    2.81855409786675    0.35352238478457
H        -0.05722857916741    1.66039094983173    1.66081744025997
H        -0.88683413458461    1.21609378597112    0.06022126348959
H         2.93700689891373    0.84243325807893   -1.16818785761272
H         3.24096063670956    0.46504896265525    1.64956856091892
H         4.87631100185906    0.18539148378180    0.99929318971029
H         1.39890496954057   -0.95471928342878   -2.52517020090886
H         1.90893148850272   -2.47430170164704   -1.99972502991664
H         3.42916742621202   -1.57114293482197   -3.81140820080704
H         4.27524782748806   -1.87579461391531   -2.26305838412785
H         2.38843531181361    1.21502895257421   -3.23644601612014
H         3.62831525581064    1.52923432471033   -4.43943200596503
H         3.16661999042829    3.14131298212834   -2.22583778448258
H         4.91491306419704    3.09677361717331   -2.83977884622776
H         5.28086908286533    2.56212633791373   -0.82629433811842
H         5.47511333311383   -0.31403809953090   -1.32727661813669
H         6.12301701010164    0.89009935875847   -2.52169031448812
H         0.44871161999259   -0.28840729505132   -0.92266747996903
