33
 energy: -44.337581204081 gnorm: 0.123770970971 xtb: 6.4.1 (79825abcba525fcdf90b791dcacef51065a7a4e7)
C        -0.08104549568493    1.81115696086090    0.49236090666612
C         1.32560124690244    1.37396412506338    0.17449132642706
N         2.33856734937365    2.18593190390902    0.14613229782258
C         3.48882786048205    1.39045066888982   -0.36536797882675
C         3.82542403383792    0.31400124650864    0.70603300321496
N         3.45828690265124   -0.99396871212715    0.03106199179902
C         2.34791573994594   -0.87986200171312   -0.63663409830933
C         2.19764536679581   -1.63148617381512   -1.96343646843267
C         3.43630404359841   -1.22556462288641   -2.86492676161010
N         4.04408841751897    0.12640030390880   -2.70184691369318
C         3.60880885933335    1.33530347475925   -3.41520592531064
C         3.95268639042646    2.52261761198626   -2.48642831568076
C         4.62488661985987    1.90992268927957   -1.25289205858895
C         5.17106617322576    0.57998192374867   -1.86077361067639
N         1.36879693691994    0.08771067092727   -0.36139193529405
H        -0.16284697216329    2.75926685664234    1.01283861905471
H        -0.52659991652613    0.98542891434570    1.05047558234974
H        -0.58781739291695    2.15329447752883   -0.42765700636959
H         3.03739823897193    0.83866893738139   -1.15444573935641
H         3.20358694553232    0.49311112492109    1.59310072217438
H         4.88554652675656    0.31398991815949    0.98039621955678
H         1.21354509781000   -1.40003199922580   -2.38936126923362
H         2.30213437056814   -2.69978873814018   -1.74745022889731
H         2.94289517049866   -1.30670880200603   -3.84584267487015
H         4.19394456892406   -2.01106579974776   -2.74869687579027
H         2.55607022817159    1.13882240720289   -3.64847413552977
H         4.16766955004438    1.70228521762967   -4.28315525021357
H         3.08004613330833    3.02762956503992   -2.06216686056864
H         4.60519147662757    3.25309060226594   -2.98247695016757
H         5.36217672041436    2.42342335898508   -0.62973958673541
H         5.42988534260115   -0.18976069125901   -1.12915308136967
H         6.03036279262535    0.78636789809232   -2.50948918608603
H         0.48158146756581   -0.22574358343299   -0.75545582414832
