33
 energy: -44.338458428930 gnorm: 0.117653180217 xtb: 6.4.1 (79825abcba525fcdf90b791dcacef51065a7a4e7)
C        -0.02506187295056    2.05353961315831    0.26136917936888
C         1.26918890691341    1.29640713914961    0.11137238320641
N         2.28654230918528    2.09805865150310    0.01894327441897
C         3.50273684626262    1.31082815045068   -0.32552899455322
C         3.81252942944532    0.22830735443354    0.74783845231501
N         3.43755818705494   -1.05524322652612    0.03155957586572
C         2.33037863826698   -0.85326579366758   -0.62045353282105
C         2.27235858689511   -1.57235668023512   -1.97229175181657
C         3.55317910538066   -1.15075896729011   -2.80505013337691
N         4.19396583430173    0.19457930777745   -2.86217570362554
C         3.32321302772357    1.33767342865644   -3.17026924539634
C         3.93713985028897    2.52148987691664   -2.38779436507363
C         4.63750263378069    1.86958330467735   -1.19056017630829
C         5.24936272572022    0.63707836796436   -1.92753597206112
N         1.24799692610059   -0.06064304441477   -0.20714038227954
H         0.41061839303471    2.94768098380031    0.69402936366360
H        -0.74692261061664    1.43763449386258    0.80119831710612
H        -0.48979318788488    2.41811950543311   -0.67212698982229
H         3.02406204465746    0.75140477364020   -1.09286947562646
H         3.09653757483877    0.36010766855010    1.56980876349764
H         4.81778954835439    0.10083714164128    1.16297494541289
H         1.33373310940888   -1.40234205970305   -2.51406065323928
H         2.42743017408076   -2.65445613242820   -1.91022769337223
H         3.39904661791483   -1.40479231053669   -3.86521189159614
H         4.31043334298418   -1.88357910402829   -2.49832335321168
H         2.33679584934257    0.94121795644311   -2.90365772597425
H         3.26144090787835    1.61916659595414   -4.22728518844625
H         3.19299016135785    3.26113775051329   -2.07844321422940
H         4.71215234304151    2.95861338897807   -3.03098686851234
H         5.38365431852966    2.47768785205282   -0.67184527626075
H         5.63405327535468   -0.24351638333596   -1.40664662216753
H         6.00901257512581    1.05516931406766   -2.59831895938524
H         0.36155074232662   -0.42939632658049   -0.55199597476384
