33
 energy: -44.319900829161 gnorm: 0.130701291944 xtb: 6.4.1 (79825abcba525fcdf90b791dcacef51065a7a4e7)
C         0.10375177989553    1.83205751036967    0.70156492903448
C         1.33265929544710    1.42667144214063   -0.07062816972995
N         2.38431401484085    2.18663972109277   -0.01898688570072
C         3.53051840212831    1.30996707018917   -0.38665894001970
C         3.73837131649293    0.19406587768459    0.67706193171528
N         3.11676916487301   -1.03061599646427    0.03291441695038
C         2.18016114835466   -0.74711675204022   -0.82391470528946
C         2.28560999256994   -1.62550693644289   -2.07500856926456
C         3.61437796254662   -1.21714840258870   -2.83615990534499
N         4.15034897835455    0.16619069587556   -2.68478603919638
C         3.45412225360526    1.34320708428506   -3.22302113089685
C         3.88019676459141    2.56710954261801   -2.37974315475685
C         4.65612830024422    1.92783754727085   -1.22297114638447
C         5.24183535818845    0.59491587980621   -1.78585798685219
N         1.21786417978781    0.27467893703688   -0.84730060926399
H         0.05421901057276    2.90274259176141    0.86794063044283
H         0.16822281255639    1.27610788948861    1.63890214234086
H        -0.78551764018010    1.36437991861430    0.24245016489014
H         3.17214754772799    0.71558738225370   -1.19237515028151
H         3.26323378024848    0.31357227723258    1.65971822481547
H         4.78117295578656    0.01897074869414    0.96173947926587
H         1.35183401172602   -1.76328928323900   -2.63403875547036
H         2.44456758701715   -2.56964417157251   -1.54380639493958
H         3.47662004897644   -1.54598488566083   -3.87785181662069
H         4.49843529414904   -1.78252793986266   -2.51471120564815
H         2.37822096463484    1.16673964263620   -3.11089106732085
H         3.67153504950776    1.42581964263255   -4.29364886363384
H         2.97117452122436    3.09583065760288   -2.07863119268599
H         4.48343206667896    3.32667803613408   -2.89411733488880
H         5.42660218440167    2.54217742384401   -0.74909865408004
H         5.25036385104803   -0.12923639777222   -0.96714533900923
H         6.20171558707829    0.71282626755099   -2.30213778557214
H         0.23975643053406   -0.01366231916608   -0.81804709238939
