33
 energy: -44.352938983989 gnorm: 0.123674934361 xtb: 6.4.1 (79825abcba525fcdf90b791dcacef51065a7a4e7)
C        -0.04697346307294    1.92632003795786    0.52239904353636
C         1.26660087016388    1.36669768302567    0.04054950042985
N         2.29996328246110    2.15164505023532   -0.00652472818194
C         3.47055279032478    1.29668509520216   -0.34753183413091
C         3.70714999284765    0.25163530202834    0.78022394355360
N         3.40477685259317   -1.07554655987383    0.11065710787342
C         2.34113653719747   -0.86945429620697   -0.60903572456022
C         2.30212469015970   -1.55621859913015   -1.97825355584418
C         3.56192325918949   -1.20823023596669   -2.87465972591417
N         4.16712840301610    0.15466951259421   -2.86857264428271
C         3.46638510326931    1.36841951546616   -3.31080109841484
C         3.95481043807781    2.53063385032102   -2.41565139283815
C         4.60974706395313    1.86529386118763   -1.20023351127548
C         5.18767595195438    0.59176740875172   -1.89356106556022
N         1.30077477089632    0.05698255909233   -0.43585695388916
H         0.12144333867071    2.99770013822718    0.50562478041374
H        -0.15852069664769    1.66312058143676    1.57602174601269
H        -0.83905970581149    1.70421668530703   -0.21487856660754
H         3.12384712927841    0.69420889664986   -1.15233808920617
H         2.97312474205811    0.43356593453808    1.57631378106474
H         4.70722859011212    0.07049891209311    1.18786015443864
H         1.37422670272399   -1.24375851394162   -2.47303666848235
H         2.46353462195411   -2.63675535078572   -1.90596567333257
H         3.32056439506036   -1.41241691495623   -3.92930962737665
H         4.38368024445096   -1.85883965254514   -2.54913938120411
H         2.37595581829509    1.30449665604911   -3.22049421508997
H         3.59697152243300    1.63027062737075   -4.36660320240219
H         3.17790990722818    3.25196955798555   -2.14614029298611
H         4.74571275243623    3.06084056927100   -2.96225205995616
H         5.37302401948726    2.45110062952153   -0.68077480365376
H         5.31680101139108   -0.28159726240973   -1.24910740156878
H         6.11055457997698    0.80829932218798   -2.44422132000098
H         0.40884002980522   -0.36967066994197   -0.68707525636029
