33
 energy: -44.344847775713 gnorm: 0.121636526363 xtb: 6.4.1 (79825abcba525fcdf90b791dcacef51065a7a4e7)
C        -0.03878303331371    1.73577132597836    0.73077918774543
C         1.22915007134901    1.26828690045665    0.06396762483382
N         2.34702305757699    1.85567871573710    0.36650205384171
C         3.45030184658665    1.03080635279133   -0.19908054040862
C         3.41286124009625   -0.29581783841071    0.61246543320547
N         2.93990865681830   -1.25840425030398   -0.46033660215123
C         2.00578430869005   -0.76942299161409   -1.22196089637096
C         2.11970098581684   -1.00095838468987   -2.73237109728267
C         3.59849907431482   -0.79896397383368   -3.26536906927568
N         4.34943645182230    0.37603212053222   -2.73689647313312
C         3.83514826712145    1.73969012923987   -2.92594872036110
C         4.40381581964970    2.59114607189592   -1.76740029309430
C         4.79700227882450    1.53783685487606   -0.72586103915453
C         5.31731395027817    0.36928719972382   -1.62047938923200
N         1.11264014864058    0.26301139379715   -0.89485002776090
H        -0.11758939097190    2.81496500818212    0.80582225418559
H        -0.01045922622921    1.32023631300122    1.73992038562816
H        -0.89872481835978    1.38065038553261    0.13521387694806
H         2.98591342083863    0.83686519189708   -1.13589733691310
H         2.78911050280235   -0.30880333278689    1.51602353502882
H         4.45251430516528   -0.57501805412289    0.81322305139130
H         1.36195692319033   -0.33686728084529   -3.16624119035881
H         1.91189730898794   -2.05096890134549   -2.96287907048841
H         3.49540409774291   -0.63281275425947   -4.34888091400709
H         4.31165804472532   -1.62139313213772   -3.12552912168833
H         2.74696619814442    1.65180790918675   -2.82892297455298
H         4.06393659654771    2.02894536443781   -3.95760962039336
H         3.57030542055289    3.17479893912105   -1.36597082335568
H         5.24275368137615    3.28734046163978   -1.89745628188902
H         5.42220205785909    1.92835288209691    0.08174102956934
H         5.30131947408662   -0.62115746225139   -1.15839367946379
H         6.33012190652696    0.62589752131599   -1.95242657571160
H         0.17016905790565    0.01259364434502   -1.19440035585847
