33
 energy: -44.345671410145 gnorm: 0.123838210514 xtb: 6.4.1 (79825abcba525fcdf90b791dcacef51065a7a4e7)
C        -0.19164957869748    1.72619802401079    0.58140212935513
C         1.12313363401711    1.15792380992249    0.11316798259620
N         2.24488371185175    1.64834017873789    0.54602450846363
C         3.37861720217493    0.90765883553752   -0.07329905638629
C         3.30194039882813   -0.53881537644412    0.49395170171125
N         2.87624619155486   -1.39712686206218   -0.68216342407487
C         1.97630085556078   -0.76230781363769   -1.37416464645274
C         2.16599583050179   -0.91274439851388   -2.88721099122111
C         3.57009110938567   -0.42711809645075   -3.43894996325510
N         4.42673841789423    0.57117041954353   -2.73653878332336
C         4.10763169935315    2.00520514342239   -2.77541760603080
C         4.62006165249434    2.59921065680803   -1.44306350291769
C         4.76543107661192    1.39520360564217   -0.50599645233983
C         5.27028115080945    0.34504500573073   -1.54468208059968
N         1.06093291416706    0.17893826718978   -0.87738895678620
H        -0.78826810294129    0.93117397343030    1.01554957395567
H        -0.76188892900014    2.18528386360329   -0.22847737427672
H         0.11107959188557    2.54985048584795    1.25241663817329
H         3.01048481372085    0.76405330240244   -1.06059409251731
H         2.60918583818231   -0.57572218737304    1.34505678149360
H         4.26908493079721   -0.90080041482967    0.85827732396936
H         1.38794959407697   -0.37510959636925   -3.44311492137636
H         2.16450825456348   -1.98479458488933   -3.10979705473760
H         3.21641697119126   -0.02780825966877   -4.40212127584061
H         4.25250099284622   -1.28054898185200   -3.33641641029487
H         3.03363203328007    2.05115702147181   -2.98917128565114
H         4.63654827909429    2.33283780008184   -3.67721636280094
H         3.97058197198872    3.42889311216075   -1.14922845242658
H         5.63687538283743    2.99865570929922   -1.55238602065317
H         5.50402539345770    1.58172815557994    0.27840500995720
H         5.02928459760973   -0.66680188121731   -1.20875620652591
H         6.32397687158262    0.47210702066329   -1.81926962122112
H         0.14343145104932   -0.00947100705927   -1.28159708005091
