33
 energy: -44.339101793407 gnorm: 0.129689232416 xtb: 6.4.1 (79825abcba525fcdf90b791dcacef51065a7a4e7)
C         0.08464736620680    2.04907747520413    0.37876289152058
C         1.22596673092045    1.12012644154014    0.05430366414339
N         2.37292707237071    1.48318548578927    0.54304321454492
C         3.41085798043020    0.64164243995193   -0.11424432785061
C         3.34026882370544   -0.79082416614721    0.48824800701547
N         2.88746221716711   -1.47188573482025   -0.78936002024485
C         1.98463356737587   -0.78377753410647   -1.42431675954966
C         2.05536604177530   -0.81537134653757   -2.95465115500238
C         3.50647839015613   -0.35117620989835   -3.39114650291210
N         4.37440587118830    0.64286048587501   -2.69659702913105
C         3.94216654654362    2.03971641962377   -2.54908799865361
C         4.41860391751523    2.56567922802887   -1.17541954496428
C         4.77023530170744    1.27969190353655   -0.41947517618154
C         5.29555131693247    0.36992220457164   -1.57400395618950
N         1.04687054682527    0.11966184967580   -0.89988701283580
H         0.15802358643034    2.87071261148436   -0.32553288869676
H         0.17999743318453    2.34092061319507    1.42641430664558
H        -0.92288759777929    1.60515469563189    0.28868152759356
H         3.13848241806566    0.56005613411746   -1.13896415418263
H         2.60448178461192   -0.73035145842026    1.30102801254098
H         4.37006481972122   -1.11975453199994    0.66277565288282
H         1.21999899458600   -0.22833671771776   -3.35588494063664
H         1.95080139184412   -1.85321351447610   -3.28749983468366
H         3.27077085829375   -0.03840171549224   -4.42014931804943
H         4.04924888673660   -1.29920033203854   -3.49693451446132
H         2.87986514286419    2.10457753970811   -2.81097777408958
H         4.49481048853730    2.70589148139815   -3.22075187562554
H         3.67662676147280    3.25785701953227   -0.76689087150883
H         5.35286179751528    3.12871838146419   -1.30018753515082
H         5.31128642829203    1.44425370046902    0.51635692929008
H         5.37046662742774   -0.70055972571841   -1.36611988657924
H         6.31665783154794    0.60591995159172   -1.89566262062075
H         0.23202407658528    0.12978626892476   -1.51357579959457
