33
 energy: -44.340433457400 gnorm: 0.116046899699 xtb: 6.4.1 (79825abcba525fcdf90b791dcacef51065a7a4e7)
C        -0.04770580577396    1.70190638471025    0.60465154482492
C         1.31644272467288    1.40238876786915    0.03877020104625
N         2.32254662356602    2.22045839369053    0.10742344391518
C         3.48288456442331    1.40092279578251   -0.33923015484845
C         3.82224067560540    0.29533445060683    0.70117949750206
N         3.38607009731165   -0.95010684468029   -0.04701309532904
C         2.27293480495449   -0.84273607699024   -0.71121477695197
C         2.19017443517477   -1.64400721531374   -2.01468703169830
C         3.51337863908627   -1.19624090973039   -2.76326458210709
N         4.15574834278218    0.14650939193421   -2.85375678177687
C         3.54927677400258    1.38177597651322   -3.36961039433805
C         4.01893215396991    2.53955077732905   -2.45879987769917
C         4.63961226624368    1.89335971752271   -1.21539599234615
C         5.13850754010744    0.54583390760068   -1.82519285945164
N         1.28842644420962    0.14767506793581   -0.56818393356652
H        -0.24807634753093    2.76769780242402    0.58364654949578
H        -0.05240101472750    1.49516876302475    1.67660072787389
H        -0.93380495301286    1.19282305255992    0.18516227081564
H         3.00592993874134    0.81973117794801   -1.09131132307741
H         3.08153594400614    0.40283218252460    1.50457951740391
H         4.85172643541122    0.30919955187905    1.07414289789851
H         1.28949183025856   -1.24516331405863   -2.49752314173575
H         2.19298296258604   -2.71281378708681   -1.77702550707957
H         3.30538643641618   -1.49473029863509   -3.80243543053915
H         4.34863306647765   -1.71509151779581   -2.27573535438982
H         2.45484538346098    1.39772692730307   -3.42655763892340
H         3.93950861212601    1.46494948580666   -4.38997218457223
H         3.19841958030645    3.22408919102758   -2.22491497638086
H         4.75773365908331    3.08300590507835   -3.06232848864820
H         5.43184424742295    2.46528633719430   -0.72461390359197
H         5.33754604378998   -0.29245825511853   -1.15257887091421
H         6.12022642804448    0.60081533176695   -2.30998437760572
H         0.33698594403928   -0.20841877591826   -0.66118584946381
