33
 energy: -44.341043800563 gnorm: 0.115816842018 xtb: 6.4.1 (79825abcba525fcdf90b791dcacef51065a7a4e7)
C        -0.09083031504482    1.90901053798500    0.32559366079622
C         1.18736303616677    1.14111067267671    0.10791214060790
N         2.32942746129819    1.50308989509783    0.60876751475202
C         3.43105890954973    0.76407432521163   -0.06783154917677
C         3.45252122582468   -0.69312255983297    0.47627965041172
N         2.81837178564342   -1.44463508893838   -0.67881529941226
C         1.90187757523700   -0.83495559155646   -1.37170185906041
C         2.06908498620749   -0.83656695538993   -2.89484455345155
C         3.56610551286987   -0.48083089268046   -3.27446771492014
N         4.42906671512303    0.63879183129349   -2.79954777037677
C         3.93485851719713    2.01624091437454   -2.66468291491782
C         4.56976418899479    2.61872020589784   -1.39012104771015
C         4.76188215544858    1.41004683231103   -0.46759231218804
C         5.26438069527815    0.45428443114297   -1.59479591936326
N         1.02224689722189    0.10155452688106   -0.80616901016497
H        -0.99148382392622    1.31021680378958    0.40787501664201
H        -0.29113389029058    2.70526010605808   -0.39392189455886
H         0.03586894798261    2.44340605785558    1.28407032784961
H         3.01123395137397    0.64548342085564   -1.03766591108129
H         2.82402166948958   -0.70608272422364    1.37654138313325
H         4.39098268923783   -1.22443292269770    0.66636974830857
H         1.52146136245511   -0.05224675722226   -3.43186084339900
H         2.00330825976143   -1.80845641941500   -3.39478720527985
H         3.62307808173768   -0.56273738453432   -4.37095217285093
H         4.25858699614598   -1.29136707181028   -3.01362072906329
H         2.84140357727002    1.98189369844997   -2.73142162200959
H         4.19230686789088    2.65332163367965   -3.51802071753852
H         3.86436433825780    3.36093072486001   -1.00532179346747
H         5.55752605952340    3.04510840314440   -1.60906742415348
H         5.51422609017662    1.49778679503386    0.32100069319078
H         5.22017183113886   -0.58086303170059   -1.24655037042192
H         6.23098536497588    0.82187294944310   -1.95862533392146
H         0.09583948316940    0.02716766740928   -1.22679603242071
