33
 energy: -44.348340642101 gnorm: 0.113450150547 xtb: 6.4.1 (79825abcba525fcdf90b791dcacef51065a7a4e7)
C        -0.12132375054549    1.70794548734700    0.68466341925760
C         1.14755800818919    1.19666400669025    0.05271088115452
N         2.30031113862739    1.65151670200962    0.44060966343341
C         3.38695240225089    0.84942552773553   -0.18659259490744
C         3.25694645885465   -0.58695502743819    0.39637375106575
N         2.87575819215380   -1.42521799256149   -0.80910194930747
C         1.92755555111490   -0.76171370403034   -1.40276543811403
C         2.05967543628520   -0.65773215101888   -2.92580738847000
C         3.58297715632805   -0.48489283421855   -3.32756701398643
N         4.48657747891867    0.53535396088232   -2.72224976415155
C         4.08519661583903    1.94887566840339   -2.74766697945003
C         4.63542241692175    2.59305618599062   -1.45426932553322
C         4.78182498816766    1.39651113117820   -0.50785180268438
C         5.32852121982844    0.34441281908241   -1.52312856018041
N         1.00505917146467    0.13104570390322   -0.83477792606637
H        -0.02062881787566    1.56041280452167    1.75452114187923
H        -1.04430205428444    1.24698060797176    0.32764807169594
H        -0.28805780783348    2.79746529405751    0.61080458837154
H         2.96629436951053    0.76637298823828   -1.15975475314291
H         2.47612374056232   -0.46267658831235    1.15829343539077
H         4.18594841875176   -0.98406057249083    0.81874493687592
H         1.35235166417588    0.10727053507876   -3.26917349168840
H         1.74570137626733   -1.63352268810635   -3.31063396445344
H         3.66433265706066   -0.32011420620271   -4.41313691114600
H         4.08255209980727   -1.44707789473292   -3.15678810506907
H         3.00376364399769    1.94838594680159   -2.92593638258315
H         4.46146367436716    2.43191984744152   -3.65619783963809
H         4.08438537187976    3.45258551897379   -1.06170930500539
H         5.65908743188437    2.95289040924530   -1.62174229013127
H         5.51107251461670    1.42221998634464    0.30647965765008
H         5.31361537547083   -0.68560224520187   -1.15760641854102
H         6.39077881911044    0.54262045625668   -1.70789942143543
H         0.04829208166883    0.00843035580911   -1.16682221479717
