33
 energy: -44.343309620947 gnorm: 0.121956434911 xtb: 6.4.1 (79825abcba525fcdf90b791dcacef51065a7a4e7)
C         0.01687677640830    1.91720815146054    0.82072204415409
C         1.18687312396760    1.29881814200873    0.09993356123483
N         2.20781547873443    2.09001001458560   -0.03381380607192
C         3.44338599656646    1.34430728609330   -0.40098555213852
C         3.65515492121908    0.27566968167132    0.70946840305047
N         3.27578246527058   -1.02486585008017    0.02694014606697
C         2.19243339785765   -0.88729681144350   -0.67959512278525
C         2.27789560310439   -1.52927796028586   -2.06829271412014
C         3.64522441276360   -1.18722857719351   -2.79296263050367
N         4.33732240850585    0.12869077845034   -2.90769120654803
C         3.62734333312934    1.30399457575690   -3.43151077916425
C         4.00780833624764    2.51179767255699   -2.54435097196379
C         4.57984872155421    1.92470206390068   -1.24938052793337
C         5.23485445849574    0.64256239012273   -1.85242269604444
N         1.14047315968322   -0.02828920839460   -0.32446931367169
H         0.29887680214096    2.93354276803872    1.07378496741506
H        -0.23084908149711    1.39128578953053    1.74477567027240
H        -0.86741952545896    2.03541697640911    0.16929629065804
H         3.13662905569117    0.79201416924093   -1.25641993558882
H         3.09622539317059    0.44819380148191    1.63870683154279
H         4.70438270649972    0.18312601349072    1.00895395592142
H         1.48430539931532   -1.03010043681221   -2.63791776757997
H         2.04493699559123   -2.59020804689823   -2.20611866712770
H         3.44833361310421   -1.56067204542528   -3.80982383314469
H         4.45302294751104   -1.79433279248992   -2.36467925614965
H         2.54315262221552    1.16552270396384   -3.51295729001072
H         4.11110952470879    1.36577635782756   -4.41257662251290
H         3.04008718959984    2.99455871347935   -2.38005419495497
H         4.75716129717056    3.21560048589673   -2.92977238169640
H         5.26129553583814    2.63222901644399   -0.76913634457792
H         5.42831064339854   -0.10929109491015   -1.08297439135337
H         6.19668482113060    0.90878737299820   -2.30610139027263
H         0.26949884109654   -0.44153767515766   -0.65811678943819
