33
 energy: -44.343063469145 gnorm: 0.121830477738 xtb: 6.4.1 (79825abcba525fcdf90b791dcacef51065a7a4e7)
C        -0.06293067805166    1.91998026267746    0.33602903786652
C         1.34372979083399    1.41725981111270    0.13750402083086
N         2.39693230212427    2.17229207488030    0.05451617435786
C         3.58474037226338    1.34649833491572   -0.29861106081981
C         3.82315823021140    0.20589824992475    0.73198525112647
N         3.44479892797053   -1.04795230675952   -0.03343226332431
C         2.30717804502271   -0.83533864463657   -0.62704550646112
C         2.25701926473089   -1.49779450689011   -2.00782823123156
C         3.57549256947112   -1.20702315783657   -2.83777553152909
N         4.21297353646457    0.14092648343908   -2.85912554365367
C         3.33305208306180    1.26965037161860   -3.19306696339296
C         3.82152200828020    2.47174797142024   -2.35226201765777
C         4.67841196438085    1.90689748391551   -1.21404260078152
C         5.24087619717907    0.63248894012244   -1.91838013966750
N         1.30896300878415    0.11317111553334   -0.35405333624760
H        -0.04063534747659    2.99979153035809    0.43608629717963
H        -0.35021281494522    1.44820226588913    1.27769354408672
H        -0.67802734659209    1.48028516115304   -0.46934857806289
H         3.22815347908321    0.78194402946275   -1.12627024062400
H         3.15258351849012    0.24476117474455    1.60058762131335
H         4.84280987227809    0.05843292301106    1.10306391408655
H         1.36058418140229   -1.08362872903008   -2.48564321794940
H         2.09069327599705   -2.57998492312332   -2.01398762191378
H         3.27181298411113   -1.37175080430550   -3.88318273879105
H         4.37469417130629   -1.89052329724218   -2.52369750407946
H         2.29285025724950    0.96493315221133   -3.03057059224164
H         3.31320124327667    1.54450786890364   -4.25344246395801
H         2.98588527076359    3.07737748809328   -1.98968788326465
H         4.44334967633253    3.04927878802407   -3.04882962523829
H         5.46935372782654    2.51386227908923   -0.76503982890202
H         5.32498833926563   -0.15975254859383   -1.17002312152842
H         6.21324970817132    0.87521970473692   -2.36266526732145
H         0.36803149984673   -0.20358725199702   -0.58858102245755
