33
 energy: -44.337298816824 gnorm: 0.127478695750 xtb: 6.4.1 (79825abcba525fcdf90b791dcacef51065a7a4e7)
C        -0.11643857649068    1.91075519361629    0.47907798630571
C         1.22370220462032    1.32471896000037    0.11656187964836
N         2.31689259025326    2.02452834720874    0.07917419491581
C         3.49436900705152    1.27304417393711   -0.43691008309113
C         3.87639545846820    0.32053069534450    0.73215546920317
N         3.35655905676112   -1.01002194599325    0.22170396388942
C         2.32204950148676   -0.83142486839796   -0.54618638747297
C         2.30246501801324   -1.57989301582945   -1.88309943162696
C         3.49333051491335   -1.18695500940996   -2.85220801429941
N         4.09937893016524    0.17548888464002   -2.86826992512080
C         3.47271795148505    1.42488352846982   -3.32225811851530
C         4.03211524206036    2.58563134335609   -2.46766251805980
C         4.64415320697998    1.83033765091038   -1.28284148748095
C         5.23044277908992    0.57790216410822   -2.00688872942973
N         1.21506525635629    0.00497986241313   -0.33254704066309
H         0.07419692847746    2.88869189163064    0.90779564475273
H        -0.56030886434416    1.21098687980552    1.18981071907934
H        -0.80835233404738    1.88784685454950   -0.38175844091784
H         3.06446917202533    0.65642488652031   -1.18914826093987
H         3.34116966967590    0.46696847050773    1.67964699141110
H         4.93358850893987    0.12048351288558    0.93576993640990
H         1.44690137824044   -1.33646564074411   -2.52511990052358
H         2.56502212151524   -2.63112204599642   -1.72555684347261
H         3.08201417525664   -1.39707632318230   -3.85165817144887
H         4.38792721617824   -1.80579010077500   -2.70632957262513
H         2.37900917352303    1.44628247213419   -3.25428251813736
H         3.65026428800099    1.59214344179627   -4.39035845018764
H         3.27168656934640    3.22524887765141   -2.01030760795370
H         4.72030762034501    3.21653024173953   -3.04539580562154
H         5.28226112897855    2.27988767690656   -0.51712503452522
H         5.43863494828571   -0.25452240419182   -1.32977351623412
H         6.12401329368731    0.91714163010678   -2.54379287695893
H         0.36703876632923   -0.14971510556827   -0.87808507165443
