33
 energy: -44.336848231876 gnorm: 0.119332983075 xtb: 6.4.1 (79825abcba525fcdf90b791dcacef51065a7a4e7)
C         0.00898635571953    1.85677039676926    0.72805874616842
C         1.24778195982127    1.23849015969874    0.13312287306543
N         2.28497523113475    1.99799963485503    0.31634867958434
C         3.47917912648980    1.31355822123532   -0.25192868229473
C         3.72989043887389    0.07819301822530    0.65963977068942
N         3.28252500581640   -1.09678857179355   -0.18914958826052
C         2.22173910124573   -0.82058452635806   -0.88929750423183
C         2.14364946170491   -1.41724111965437   -2.29849142848311
C         3.55566540426194   -1.11662539735726   -2.95238249665059
N         4.27713589476328    0.18121481961413   -2.81491561038446
C         3.58347729914265    1.39606367016700   -3.26522247763420
C         4.03547028888815    2.51838410189006   -2.30257319064243
C         4.65503401910976    1.88135529315283   -1.05389589538890
C         5.23079810637719    0.62318875190185   -1.77645190266182
N         1.15736495081230    0.03555711663659   -0.56563425682550
H        -0.02382772401373    2.77997726062913    0.15962823873725
H         0.18450576146204    2.12506281712170    1.77163416377344
H        -0.89507684025981    1.27966566658200    0.46361847623632
H         2.95109459699900    0.97413217077535   -1.11030632524394
H         3.13990036822747    0.23215555429043    1.57279808119881
H         4.75770522031521   -0.15769516558162    0.95474722243791
H         1.26047635446779   -1.07571902003820   -2.85239053385644
H         1.98802881957724   -2.49962726447509   -2.24316676165069
H         3.69350293580302   -1.21299676736281   -4.04047536493204
H         4.21552547478380   -1.82368828406760   -2.43354975223192
H         2.49074022965958    1.32409091375685   -3.22024346846415
H         4.03599253631604    1.71860769174988   -4.20943231571402
H         3.19280459606903    3.19160108801343   -2.12028416305138
H         4.85175203462037    3.05494441101513   -2.80377681298907
H         5.35426405100201    2.55557572401985   -0.55179750425679
H         5.37536045874280   -0.26596425921082   -1.15736523543188
H         6.15882799662228    0.92116531499316   -2.27823695233535
H         0.22999158190168   -0.22354338098289   -0.90258641435025
