33
 energy: -44.341979907464 gnorm: 0.133591482996 xtb: 6.4.1 (79825abcba525fcdf90b791dcacef51065a7a4e7)
C        -0.03323124366436    1.87511677432453    0.60927735540574
C         1.29485750592515    1.34059477931734    0.13885179621224
N         2.31556595206253    2.13343668545589    0.01334402022493
C         3.48368337690679    1.30612420995855   -0.39723838358771
C         3.73255764715067    0.26572371031565    0.73217243500906
N         3.41996101875627   -1.03641477567787    0.01951566884431
C         2.25228937964334   -0.89716922889661   -0.53628658327163
C         2.29486590597807   -1.42937171517441   -1.97255687276860
C         3.63568456765465   -1.20014318028747   -2.78581693729855
N         4.27937113530043    0.13061429340687   -2.98217930699507
C         3.53947752681901    1.32900673244591   -3.40195216496866
C         3.89606832394728    2.51379100843143   -2.47473930809020
C         4.60451580270683    1.86018152942086   -1.28320385870756
C         5.20345543522291    0.56393965304078   -1.91376141717369
N         1.21611442410702   -0.00343769973127   -0.22289521538643
H         0.00893158225466    2.74130267852174    1.26077192690105
H        -0.63717654626286    1.09414128650066    1.07528689866374
H        -0.60010069379127    2.12146926609729   -0.30629802294351
H         3.03492854964511    0.74447100900497   -1.18085836671393
H         3.09147600587765    0.59233802269741    1.56162301827599
H         4.77617122444085    0.19870404266601    1.05700152650639
H         1.36286622319677   -1.05935577287622   -2.41741763740948
H         2.23515635007952   -2.51168258811444   -2.12707647851360
H         3.38630708764741   -1.51965302092920   -3.80951467080479
H         4.46475424066247   -1.71396326738683   -2.28265390044168
H         2.45997761239441    1.14275367657498   -3.43755024546431
H         3.84326703641667    1.59146453611153   -4.42134646346367
H         3.01000027602471    3.09059803454283   -2.19418104564321
H         4.62360643904042    3.15176767558396   -2.99348007804843
H         5.44029307569930    2.47840455772465   -0.94427132592923
H         5.21268999169123   -0.18280740470082   -1.11561155069891
H         6.15014336013195    0.78757883180622   -2.41931580347620
H         0.25866110123105   -0.15038069630265   -0.54286722419487
