33
 energy: -44.346888692716 gnorm: 0.125550613191 xtb: 6.4.1 (79825abcba525fcdf90b791dcacef51065a7a4e7)
C        -0.10269373257724    1.90779277782620    0.48902229738024
C         1.20711623722443    1.24580151802397    0.14697096161994
N         2.39420834631867    1.70832964622685    0.39812089592995
C         3.49790222239454    0.88954417375142   -0.17544020708147
C         3.50858219992692   -0.50281424195374    0.51821992692625
N         2.99647790792254   -1.43047599277134   -0.56730014556820
C         1.99364786925126   -0.86047897497888   -1.16829752887568
C         2.02024109571553   -0.93942818827249   -2.69832512460480
C         3.50111968629969   -0.64684613931586   -3.18115709585590
N         4.38253250605568    0.46914994950361   -2.73230276040553
C         3.93805978944649    1.84792458170983   -2.97973107676488
C         4.36413142178300    2.60731836145676   -1.70208538293503
C         4.78050391108645    1.59388768783430   -0.63042679264609
C         5.33341171347006    0.50434347002192   -1.60190035569305
N         1.11199143108712    0.06829738564109   -0.59324521363305
H        -0.59846763026154    2.40337085495772   -0.33869233719250
H         0.14823633438769    2.66005509486656    1.23933759789671
H        -0.78930353611528    1.13861993026232    0.88556851623889
H         3.15891212271025    0.62724005035457   -1.14867078063015
H         2.89042087669401   -0.54774285325055    1.42459118028326
H         4.48564499716524   -0.91219847197459    0.79550627115312
H         1.32575584478672   -0.21925906212947   -3.14830621125809
H         1.69336002537074   -1.92970516877926   -3.03199957999553
H         3.36124002220567   -0.52210638520983   -4.26610243810671
H         4.02107465723776   -1.60343369344259   -3.04285404893703
H         2.85212832080329    1.73606124435349   -3.07728585668721
H         4.33041449924820    2.18260644873577   -3.94636582319466
H         3.48928722974052    3.16406769250789   -1.35392780986790
H         5.21703604392516    3.20158974703272   -2.05537443164815
H         5.46150421473578    1.99565841815751    0.12483309351469
H         5.32789579162467   -0.48296120182785   -1.13290279161679
H         6.34451547515551    0.80238704525974   -1.90299329271140
H         0.19942090525913   -0.02334461454851   -1.03990838782427
