33
 energy: -44.351215264318 gnorm: 0.117888260139 xtb: 6.4.1 (79825abcba525fcdf90b791dcacef51065a7a4e7)
C        -0.08743221677838    1.73634481331943    0.71070348776768
C         1.12960356225933    1.09398258040170    0.09667711053593
N         2.26238602734923    1.62986670322581    0.43701274846383
C         3.35823315640864    0.82431710608134   -0.16939560932661
C         3.23165155889346   -0.58575045523547    0.47529578164992
N         2.85889561738917   -1.39635812311962   -0.75154128234432
C         1.92450280768423   -0.77069633233804   -1.40516192605027
C         2.12042234162247   -0.71958854087047   -2.92401944341749
C         3.65443227564386   -0.52054650135237   -3.26887906682511
N         4.58238031676593    0.54563644406256   -2.79351351234323
C         4.16650908530538    1.95455647123451   -2.83584236338205
C         4.46331222594959    2.58498383131230   -1.45560191125159
C         4.73257948298655    1.41265130671706   -0.50586957345178
C         5.31431131483045    0.37917693578394   -1.52080470756684
N         0.97033491740106    0.11912203686317   -0.88707343238510
H        -0.35831253299549    1.28797715619265    1.66048830975573
H        -0.98611215227042    1.76404647060423    0.09147450797445
H         0.14322516259037    2.76995687394254    1.02495192006568
H         3.00986948852755    0.78544327121512   -1.17340112473466
H         2.42680113189337   -0.56380343172378    1.22187797751479
H         4.19997699085109   -0.95809253493291    0.82578417238881
H         1.57769299138437    0.12603166352376   -3.36425533090478
H         1.88243757597909   -1.69099363040525   -3.36963562683705
H         3.72292421044394   -0.56372204884612   -4.36691251278953
H         4.17139328632968   -1.45812299847770   -3.02754469266734
H         3.10594834992068    2.08821288118320   -3.07796709233721
H         4.65938778383660    2.43438327356247   -3.68858718642098
H         3.64715474666954    3.19038685192026   -1.05074388086474
H         5.36594977401809    3.19813224191294   -1.57689663344575
H         5.34693261295922    1.58449882124799    0.38218295781625
H         5.44560429117545   -0.69379608830970   -1.35878403079549
H         6.35410810779753    0.70541064766008   -1.64001857241353
H         0.04547635689507    0.14796822897060   -1.31660311165909
