33
 energy: -44.341254213414 gnorm: 0.126039103569 xtb: 6.4.1 (79825abcba525fcdf90b791dcacef51065a7a4e7)
C        -0.05844019039728    1.80319476155965    0.47836731918339
C         1.31874595448612    1.35719359789851    0.05970877735900
N         2.34835433145378    2.14833044691678    0.04538093493373
C         3.52466813379839    1.33780425594608   -0.37516072026822
C         3.86440809413807    0.28537509647817    0.71887310660197
N         3.42338908539174   -1.02110166476959    0.08659022016735
C         2.32440451979922   -0.85711847770921   -0.58950514074199
C         2.18741495256485   -1.45611291880518   -1.99320173041415
C         3.54948045572771   -1.22052432477143   -2.76844874580825
N         4.19220721021257    0.12504404833354   -2.78086288887724
C         3.43866784112992    1.28966171910811   -3.26629089108434
C         3.92150747418941    2.51346954406715   -2.45403800016597
C         4.64930561030799    1.88419526821338   -1.26106538194240
C         5.26743352727657    0.59203762795289   -1.88140482606143
N         1.26500188536012    0.04689190825257   -0.41326662311986
H        -0.04160189585955    2.64054910661949    1.16760971153240
H        -0.58831021720746    0.98549689188259    0.97075485343816
H        -0.67054584480194    1.98874155621372   -0.42230345537264
H         3.17853562094822    0.76105151884157   -1.19883787395543
H         3.25337230145559    0.58483842656777    1.58062006574064
H         4.94405510425786    0.18538350683659    0.87216656372697
H         1.26897944957114   -1.07333734319472   -2.45514911678560
H         2.04356163580160   -2.54149992410386   -1.98427767247607
H         3.24993257516953   -1.37075308499591   -3.81722665701649
H         4.35298603045171   -1.87465208291460   -2.40645935961112
H         2.36123408577602    1.22382432094220   -3.07634502967167
H         3.51022908661003    1.60027715358206   -4.31449599463309
H         3.07866504528045    3.16766001975060   -2.21281749649499
H         4.75745520014762    3.00959184980716   -2.96440255847655
H         5.24900565357604    2.60330018465923   -0.69640034489217
H         5.53145619235942   -0.21408222748097   -1.19204101710515
H         6.07977032847416    0.80080861204177   -2.58733778637625
H         0.32004587593638   -0.14670440966414   -0.74533558161123
