33
 energy: -44.341235149693 gnorm: 0.113704694254 xtb: 6.4.1 (79825abcba525fcdf90b791dcacef51065a7a4e7)
C        -0.02031213719672    1.81547676564479    0.55750705677903
C         1.29336438933369    1.35241933041303   -0.01752816573649
N         2.28844452684638    2.18114334859449   -0.11359193721034
C         3.46903810978893    1.32249574468153   -0.40760765941639
C         3.74653766711359    0.28280199959083    0.71576730190860
N         3.35589443320150   -1.04223664956077    0.08900467557440
C         2.28050498843388   -0.87598977468866   -0.62349938590953
C         2.20354370918424   -1.38788275808618   -2.06570849663605
C         3.61179673921473   -1.22485755026506   -2.77421293165390
N         4.21493323915282    0.13597701051883   -2.86455505741989
C         3.49050464562145    1.32812777924965   -3.32691422666310
C         3.99466438509367    2.53054216113051   -2.49588048964125
C         4.61771998328564    1.87144216059989   -1.26046605804703
C         5.22827211067709    0.57716594218192   -1.88388380539800
N         1.25131696851231   -0.03180053469090   -0.17769079554779
H         0.38267958804954    2.55912496802443    1.23654015018921
H        -0.58247024881417    1.05237901560599    1.09926126201490
H        -0.57226805990033    2.21691518231610   -0.31111291490585
H         3.07623300648255    0.62948464437952   -1.11211830927931
H         3.06836710744231    0.64141281859954    1.50134595590959
H         4.73740729940367    0.23436348422464    1.17941150507030
H         1.40954992234174   -0.82001713992927   -2.56624701572473
H         1.91518855317223   -2.44215507412493   -2.13051243128676
H         3.57844054847047   -1.60597063809054   -3.80662413369990
H         4.37397344971190   -1.77405832595744   -2.20675736760552
H         2.43104577943414    1.10961453040063   -3.15062933449482
H         3.61714681208887    1.54250923808724   -4.39384405145176
H         3.16630058441207    3.15668385125189   -2.15193882670611
H         4.75382625029472    3.06603894495263   -3.08097396889661
H         5.35444048997086    2.48458269550237   -0.73425297829856
H         5.37438311787133   -0.25751805411204   -1.19343912790215
H         6.10320349542613    0.90843681087430   -2.45534896633314
H         0.32192708318317   -0.36281829762351   -0.43721513621086
