33
 energy: -44.342424507832 gnorm: 0.122422538868 xtb: 6.4.1 (79825abcba525fcdf90b791dcacef51065a7a4e7)
C        -0.01261277537150    1.86735229544519    0.48994991306029
C         1.36347681390305    1.40474067480650    0.08596766046521
N         2.38762162815977    2.20280590264947    0.06558267801250
C         3.54603542522791    1.34085380891934   -0.29861265581442
C         3.82834984058333    0.20924992117319    0.73081029674106
N         3.35307961180932   -1.05031877901804    0.03169238561541
C         2.28346938712232   -0.87743363427201   -0.68789585646259
C         2.23365787174111   -1.55190530310039   -2.06286182668550
C         3.61898935698100   -1.24882677300092   -2.77048635265818
N         4.11908320952718    0.15600693821107   -2.75805882172568
C         3.30170765667659    1.28650732353503   -3.22029506316014
C         3.85890590395531    2.50653836548883   -2.45110793502900
C         4.59999585820698    1.94408390798110   -1.23320376042164
C         5.20367321092524    0.66479389465524   -1.89317743101693
N         1.34127092717755    0.14961399848661   -0.52037271111212
H        -0.00030853013698    2.95194544143211    0.49263853562321
H        -0.19223031644927    1.38362468555318    1.45202199341385
H        -0.76580974339358    1.40483191124759   -0.17267971261334
H         3.09252926085221    0.80887311369552   -1.10000157259180
H         3.21658618521755    0.38270075198267    1.62596999745075
H         4.87835927528920    0.02677048704004    0.98243763340359
H         1.45351374517529   -1.05949566380424   -2.65644771877604
H         2.15869395283988   -2.64323098514616   -2.01567025560916
H         3.56038239318414   -1.66805297558747   -3.78687571603985
H         4.32143023242347   -1.89194753888291   -2.22503868713806
H         2.23197064983774    1.11779047545486   -3.05155011900622
H         3.40807218474637    1.41719042750687   -4.30285934232958
H         3.10717835463634    3.21069641231678   -2.08286479556889
H         4.58545454630532    3.06912422189587   -3.05197576628393
H         5.48179870142946    2.41873065953500   -0.79419027496873
H         5.33250985782787   -0.10975246655920   -1.13275734149401
H         6.18083763708326    0.80048277937961   -2.37125269588451
H         0.41182269939098    0.10326432742760   -0.93830681139478
