33
 energy: -44.338315826389 gnorm: 0.131890940583 xtb: 6.4.1 (79825abcba525fcdf90b791dcacef51065a7a4e7)
C        -0.15716187789288    1.59888763987405    0.79474303813973
C         1.09499548243392    1.12369045785440    0.10400191776035
N         2.20807424571700    1.66655212166005    0.49458242050408
C         3.34250272441927    0.94580849285888   -0.14660617875935
C         3.23786323129081   -0.45131833836939    0.52943199218872
N         2.88648444466656   -1.26660185995023   -0.70061137753652
C         2.01378981022629   -0.62296141624299   -1.41886870991291
C         2.15519620332349   -0.85569924698485   -2.92676855835151
C         3.61753403680801   -0.45635443798452   -3.38917979008914
N         4.54618073676437    0.50164544182972   -2.72310353085831
C         4.11294431008314    1.90403035020199   -2.79671754462545
C         4.71517664354599    2.55340380799779   -1.52934830174092
C         4.75628424829089    1.42370312247601   -0.49448288126693
C         5.22263863507577    0.26518900416071   -1.43092996873871
N         0.99952893580886    0.23560853073283   -0.96636313145337
H        -0.52878718251744    0.78298494196779    1.40523327898619
H        -0.94480015840713    1.66282797995029    0.04149997380412
H        -0.08492232276596    2.56118299596354    1.33240267457306
H         3.00088795563897    0.89462011806135   -1.15237682505215
H         2.47597188281339   -0.56988574315002    1.31116992610096
H         4.17911937238351   -0.83823083962963    0.93374680914819
H         1.39707213447288   -0.23517394674449   -3.42036005190078
H         2.01719133022121   -1.88465690839334   -3.27467537857023
H         3.55479423713649   -0.01858878362492   -4.39747422615191
H         4.26258616124724   -1.30412416125389   -3.65325346043839
H         3.03765916691595    2.11074168659160   -2.84477768835260
H         4.49287907457672    2.37374342173118   -3.71069572264811
H         4.13578872061542    3.43422781215836   -1.23781000225474
H         5.73506991040945    2.67971047137671   -1.91571895050010
H         5.40354789149597    1.67480153678905    0.35026441429410
H         4.99930651013768   -0.70026005775378   -0.96963773432703
H         6.28091470957752    0.25284474141611   -1.71679202916200
H         0.15309339040169    0.32352266751517   -1.52895461081594
