33
 energy: -44.341411402606 gnorm: 0.132123482111 xtb: 6.4.1 (79825abcba525fcdf90b791dcacef51065a7a4e7)
C        -0.17101127959152    1.69123527206212    0.61196980371541
C         1.14853399982846    1.17339882313110    0.10061926596028
N         2.25783222628930    1.61919171681481    0.60749437309188
C         3.37298728491019    0.91215419126905   -0.08101800982946
C         3.30989086037385   -0.54781565574067    0.45231800003479
N         2.98487600492826   -1.32380504862685   -0.80996832589103
C         1.93433112272448   -0.81249725359123   -1.38152964143251
C         2.07137940392630   -0.82773895772736   -2.90760633867220
C         3.56669916158097   -0.48667157906316   -3.30688597906706
N         4.45757385735992    0.53121399646356   -2.67914616402236
C         4.10179720282018    1.95293041939604   -2.78842396345150
C         4.58654475873319    2.55272331189903   -1.44832592317344
C         4.77658782962735    1.38615926290566   -0.47268671579291
C         5.32860496771240    0.34833326209063   -1.49970608881068
N         1.06933354788578    0.15727495906266   -0.85054016906664
H        -0.66113335931748    1.11171154618250    1.38684624604466
H        -0.83718527534079    1.83251775611323   -0.24131151379184
H        -0.07408186264481    2.72667314156391    0.98450423420102
H         2.95817129067088    0.89731532664922   -1.06010073931061
H         2.50546246482574   -0.59663777183894    1.19808083976928
H         4.25124040464210   -0.93440179885454    0.85672752778675
H         1.39105709355827   -0.15008118335108   -3.43805690804018
H         1.89982971323336   -1.81644477488202   -3.34563588984140
H         3.58383158485218   -0.12427121663955   -4.34640758901879
H         3.95849463923778   -1.51055559616975   -3.25493911057176
H         3.03590714910440    2.08192078611550   -3.00869055502333
H         4.53011292093194    2.26109314639641   -3.74858972162580
H         3.91587971159700    3.36030799530353   -1.14083406173106
H         5.53353418617628    3.10117007788495   -1.53684198750237
H         5.48225426663393    1.53488621278488    0.34920975204077
H         5.30288488678066   -0.73397129116016   -1.34899117259126
H         6.33052037972323    0.66452736700626   -1.81276286324534
H         0.26414403694837    0.29017158659008   -1.46266723889180
