33
 energy: -44.344381705058 gnorm: 0.112920587357 xtb: 6.4.1 (79825abcba525fcdf90b791dcacef51065a7a4e7)
C        -0.03154364049014    1.81905581337426    0.59978740681247
C         1.27723512448831    1.33788584520615    0.02846674427333
N         2.26996825979971    2.15290634953943   -0.16237014627903
C         3.49717737731055    1.34003338273191   -0.38757555301315
C         3.79145200993724    0.31669262692169    0.74649522283720
N         3.36772801966603   -0.98475643355407    0.09239334845164
C         2.29341760866053   -0.88743987379476   -0.63434535478166
C         2.19418696838580   -1.60297160134091   -1.98567515208620
C         3.46118088406798   -1.15797619818449   -2.82736266089435
N         4.12248850302176    0.17755400544175   -2.77409596631289
C         3.41986420851301    1.38920789711706   -3.21907932683670
C         4.11248105176764    2.55904927866225   -2.48263685646448
C         4.66296984924638    1.86896950559529   -1.22979532765229
C         5.23145988627829    0.56837895167540   -1.87930114456735
N         1.24088435850199    0.00952955073624   -0.39299838337759
H        -0.07073461694847    2.87247763475116    0.85526232946627
H        -0.31114693880615    1.29615224804459    1.51642877195826
H        -0.83389143231716    1.53064635638468   -0.10261333119103
H         3.02608965286551    0.75783281208666   -1.14256849719499
H         3.26230124294610    0.65461517205576    1.64730522596282
H         4.85048179028639    0.17485979571863    0.98623308049824
H         1.33751175994067   -1.47896967959474   -2.65959458900730
H         2.30188929258041   -2.67732305479852   -1.80399539734307
H         3.21332277302772   -1.29916177197040   -3.89078435846127
H         4.33872027233771   -1.79321351377937   -2.65146830463528
H         2.33480120762458    1.35877622416663   -3.06745582451720
H         3.69519850207539    1.46480120620757   -4.27681917275532
H         3.42941609470874    3.38033872340998   -2.24717607215615
H         4.91745916330655    3.00884457666447   -3.07854989753422
H         5.44643795654234    2.40647559387416   -0.68862663358173
H         5.46487920222858   -0.17716725493407   -1.11481705266307
H         6.10978089689077    0.88397053755326   -2.45442886739344
H         0.39763681598487   -0.29498275935249   -0.87971907551900
