33
 energy: -44.337006385654 gnorm: 0.120670141365 xtb: 6.4.1 (79825abcba525fcdf90b791dcacef51065a7a4e7)
C         0.02090839648945    1.99848059615904    0.47910059730575
C         1.31056844483034    1.31693788059636    0.10080148885928
N         2.36583327649058    2.07352098427628    0.11474399098820
C         3.51926673853349    1.24866781492641   -0.33993245620319
C         3.78008795221895    0.18833176710460    0.76803873573903
N         3.22095196667063   -1.09133398365342    0.17560015797740
C         2.23934478731604   -0.88972393712471   -0.65359419468509
C         2.28695301374395   -1.55838719547310   -2.03147209575839
C         3.60172797431636   -1.16306326799491   -2.82319057183979
N         4.23947406013892    0.18251344445189   -2.90387064135398
C         3.36892200619313    1.30869679513743   -3.26944748789241
C         3.92001069354913    2.50624203613058   -2.46149877713846
C         4.58347865262900    1.93275389896201   -1.20460517108670
C         5.20483618690179    0.68289031306823   -1.90341154908312
N         1.20571218583950    0.03519875967328   -0.43737571709558
H         0.37503326043321    2.90045410475920    0.96648165022519
H        -0.60099466289717    1.30626353101569    1.04998558025407
H        -0.41320805829002    2.35410821933478   -0.47241435263031
H         3.20722520675438    0.62608344484200   -1.14362037821988
H         3.13830571885433    0.53894278135345    1.58708594724435
H         4.81676118692127    0.03564533469765    1.08604868567584
H         1.40865143270658   -1.24884284351641   -2.61130391381844
H         2.26827379523617   -2.64580186920037   -1.90490676540420
H         3.35159880443003   -1.52911018785388   -3.83099896976254
H         4.39514941398441   -1.86015123953613   -2.52470870062614
H         2.34092556139729    1.01599268255086   -3.02690861536461
H         3.40312866919805    1.62061911358672   -4.31914805140984
H         3.14343416328684    3.27124155573804   -2.37072158795012
H         4.77447431673335    2.84177604776248   -3.06376679972452
H         5.36273644893643    2.62113283744538   -0.86624094235927
H         5.68651363351835   -0.00196160662883   -1.20075634470908
H         6.09045615108619    1.08604253996632   -2.40835046382596
H         0.27500604679012   -0.38241078022428   -0.44629545206486
