33
 energy: -44.343252200594 gnorm: 0.110080190785 xtb: 6.4.1 (79825abcba525fcdf90b791dcacef51065a7a4e7)
C        -0.15840665884789    1.77236872971301    0.54345693218689
C         1.22054293081325    1.36278003083272    0.09449276864312
N         2.24887388227164    2.15542050626545    0.07321477714666
C         3.46667155407309    1.43655378909103   -0.39339171691264
C         3.83200821126557    0.41504834537327    0.72150565653303
N         3.52458767942757   -0.87367321725627   -0.01731116934965
C         2.37448268375220   -0.84115791874905   -0.62391135003848
C         2.19239760136931   -1.47337071493789   -2.00777428008094
C         3.50489228864854   -1.21533823037684   -2.85777974841464
N         4.21685724938964    0.09475625996366   -2.88153613162807
C         3.53074620692981    1.31018972765469   -3.34172019638839
C         4.03698928810445    2.49653638167635   -2.48913939527688
C         4.66702618337679    1.83482861476857   -1.25866946517563
C         5.20654509604742    0.50011197490170   -1.86201459795635
N         1.32194265603238    0.03000887472022   -0.30164334991570
H         0.04957204532761    2.64284317990037    1.15625380325943
H        -0.62807776896021    0.99683403359370    1.15156261105110
H        -0.79336099927560    2.12734790467145   -0.28788629437667
H         2.99176768738205    0.76683900176921   -1.06929401313632
H         3.18252743516454    0.46120906899977    1.60564069069402
H         4.85823553055905    0.43275952083926    1.10318441288695
H         1.31901071643656   -0.99397143966268   -2.46691260271058
H         1.86940544597594   -2.51943137815185   -1.99129639965467
H         3.27780462504608   -1.47439387585762   -3.90351111097691
H         4.24436839597471   -1.93244168879855   -2.47899435988000
H         2.44925675252128    1.13237250449090   -3.33546820913302
H         3.81792239165014    1.45952870746102   -4.38841242045510
H         3.15160331950005    3.08073217378176   -2.22203860165157
H         4.72997245302983    3.12808798335514   -3.06039663155010
H         5.44884072368069    2.41409710903481   -0.75985821776218
H         5.45715698598209   -0.15819783512549   -1.02620270246455
H         6.03449065676874    0.71018626355623   -2.54917738156463
H         0.46801701344208   -0.52811388901159   -0.30273019522999
