33
 energy: -44.335044251972 gnorm: 0.126416225221 xtb: 6.4.1 (79825abcba525fcdf90b791dcacef51065a7a4e7)
C        -0.05300201562382    2.05519076546743    0.25858794580227
C         1.24668543902498    1.30092629198871    0.14575469387316
N         2.34968206055642    1.98232424042932    0.21849763917574
C         3.49151331653425    1.22077745746829   -0.35924802356346
C         4.00921883179548    0.13653359141258    0.62884946627419
N         3.41671726328625   -1.11469281954717    0.00874035038039
C         2.28026520582715   -0.84200174035429   -0.56211762912956
C         2.25989117122004   -1.59958700574488   -1.89387364843737
C         3.50131489945563   -1.13904271216366   -2.76479180904626
N         4.15961010081492    0.19809250520717   -2.81502006132359
C         3.49027423945145    1.40812924546902   -3.31261109648570
C         3.88208666288776    2.56626248044179   -2.36614139436485
C         4.58944830728675    1.91320101506036   -1.17366072789902
C         5.18290971193166    0.63356105635120   -1.84216627234441
N         1.17454741829633   -0.01547350268057   -0.30742562191491
H         0.21374287469862    2.96692273106352    0.78212677225335
H        -0.78636742713950    1.56322844162563    0.90044913361363
H        -0.53157574599097    2.13920553709226   -0.73348941995200
H         2.96068118223608    0.69697086443815   -1.11736370800857
H         3.62304126198835    0.22255216576593    1.65311434480813
H         5.09747666648564    0.25317442492014    0.59385408661816
H         1.42390942149646   -1.37828764974929   -2.56885321951334
H         2.24736969638262   -2.67497004583565   -1.68836719068933
H         3.19020800336864   -1.31342874749224   -3.80644181233227
H         4.33285712979915   -1.83277027871487   -2.58640953896081
H         2.39962813027462    1.33316807695614   -3.39102906346023
H         3.86892664587753    1.54455385500795   -4.33160451355544
H         3.02153910828031    3.15527963835574   -2.03591031487143
H         4.53511011312654    3.27755682529078   -2.88867240024531
H         5.30963204253513    2.50956325738066   -0.60683968431806
H         5.32510230870993   -0.19096860146401   -1.13882299609442
H         6.06634463458909    0.72668650900071   -2.48457434841206
H         0.35205915992967   -0.17098347084894   -0.89053875323201
