33
 energy: -44.340639457990 gnorm: 0.129061589111 xtb: 6.4.1 (79825abcba525fcdf90b791dcacef51065a7a4e7)
C        -0.09259109672460    1.93026210516208    0.31736075443429
C         1.19023062837650    1.22428276023220   -0.03872248800410
N         2.29056199295630    1.67880703085284    0.47980890202352
C         3.36226942596386    0.76851556296770   -0.01043061457082
C         3.31453476759649   -0.70164738237509    0.49581311710515
N         2.97332577774043   -1.53439072966118   -0.72536496265667
C         2.07758154506286   -0.82748721093370   -1.34961827904159
C         2.07148205700061   -0.83791779242064   -2.88186453868101
C         3.45473850330862   -0.29269181176651   -3.43055624312703
N         4.39383285812146    0.68420322871189   -2.80799387030846
C         3.99061858663623    2.07305152647884   -2.54662266998276
C         4.61971736547240    2.46901624257664   -1.19087891326226
C         4.78837181402957    1.15996969475214   -0.41189706253895
C         5.23781274818014    0.32274447176858   -1.65029574131705
N         1.13844129109981    0.07529479404427   -0.82652270815340
H         0.14151991294150    2.89572849888529    0.75275435209357
H        -0.64886722563888    1.30395180110327    1.01745346843259
H        -0.76584487844851    2.11623351315015   -0.53847379045450
H         3.07391098979829    0.66519795857468   -1.02879713979803
H         2.58351069796857   -0.89089650807280    1.29295766389056
H         4.27998972571016   -1.06912313048479    0.85912176395602
H         1.26474997558193   -0.17516040773517   -3.21857258347222
H         1.95650070117218   -1.86915134425211   -3.23139997245586
H         3.19660363546372    0.10108306527479   -4.42581523125925
H         4.05729311593442   -1.20425218442816   -3.53315390014115
H         2.92029018609681    2.28992321880096   -2.45366421347308
H         4.37186754635832    2.64435909996394   -3.40019972562354
H         4.06769088687669    3.31218593064865   -0.76559369775377
H         5.52549292065278    3.05730704496637   -1.38811607786402
H         5.53697753225160    1.25160278531615    0.37980457513390
H         5.31436318655567   -0.76219938586558   -1.54168401942588
H         6.17848499616241    0.78881015922909   -1.96610620209100
H         0.25820182864607   -0.01718622853331   -1.33378688978651
