33
 energy: -44.329172687665 gnorm: 0.128951450278 xtb: 6.4.1 (79825abcba525fcdf90b791dcacef51065a7a4e7)
C        -0.04704349492460    1.89794848110936    0.02068713341213
C         1.33761708778465    1.30407766669707   -0.00874482296313
N         2.40259085190987    2.04687964935844   -0.02524704615889
C         3.59030846825676    1.19554802166075   -0.31174920614630
C         3.91451918719389    0.17867355536202    0.81997254660412
N         3.41139874588778   -1.09388492255566    0.16527743793114
C         2.29236846407563   -0.98570905866850   -0.48881103972719
C         2.29446808581007   -1.58202350338320   -1.90030998517683
C         3.36198041899038   -0.97847858364033   -2.90424388717998
N         4.04889887240988    0.34509627958368   -2.89431210149017
C         3.26327927586361    1.56725092213443   -3.11552720186810
C         4.02081791986039    2.60189434491854   -2.25167382700922
C         4.72142660290556    1.82732634235114   -1.13004474606681
C         5.18625574808516    0.60963675649951   -1.98896293660048
N         1.26303651144244   -0.07389953981969   -0.20648517609499
H        -0.07710202104328    2.97126147827601   -0.13292473452310
H        -0.44504509470204    1.68424979312536    1.01455087664062
H        -0.52367527822670    1.57806760093395   -0.92313867981418
H         3.15864433155605    0.64168234724994   -1.11036950481373
H         3.37630001898673    0.54745524235946    1.70313223825418
H         4.93834298946196    0.02171552003647    1.17533695767082
H         1.28393728474306   -1.38651121873590   -2.27983436940815
H         2.46823903824804   -2.66306063386961   -1.90117256906585
H         2.87323218713473   -1.16804089591056   -3.87245047990292
H         4.24772557526306   -1.61625227597532   -3.01931291701850
H         2.26126009750539    1.32495989834171   -2.74333085906319
H         3.14460579255694    1.75403763874704   -4.18854361644197
H         3.45651289809385    3.43229159359652   -1.81746636171449
H         4.82590176741245    2.88187440351786   -2.94367750618341
H         5.50266166285849    2.38375855709096   -0.60501750928899
H         5.41734915234710   -0.30443198425877   -1.43594048902795
H         6.09733639696687    0.75293825834757   -2.58159644420878
H         0.38830275700091   -0.56416264138283   -0.39403290621777
