33
 energy: -44.344164227858 gnorm: 0.114994105503 xtb: 6.4.1 (79825abcba525fcdf90b791dcacef51065a7a4e7)
C        -0.06268187159727    1.69817506470904    0.66261982256076
C         1.26537090190945    1.39352380749751    0.01896064008016
N         2.27660383942625    2.20782528398340    0.04170445889852
C         3.44845930673082    1.42309049098808   -0.43627904883504
C         3.78295012979676    0.41966467506354    0.70441938899817
N         3.35535156344547   -0.90833880153104    0.10882961544251
C         2.33993080753351   -0.81232195551606   -0.69830356631764
C         2.21402387659533   -1.57679991778050   -2.02028900144930
C         3.52178253626955   -1.24990746573137   -2.85374024593865
N         4.12704526678912    0.11086844992168   -2.77789845069384
C         3.44344056393116    1.31318403333681   -3.27480699166486
C         4.09969332909281    2.48203043968606   -2.50427156012899
C         4.68263692244843    1.88174668345872   -1.22025594805378
C         5.17839512894570    0.53269897127293   -1.82924576207326
N         1.29654150102505    0.11096623034340   -0.52652918175079
H        -0.06716377532535    2.61682748209392    1.23929872185001
H        -0.16856131939543    0.93315766287948    1.43422559185654
H        -0.96419683650987    1.59321014948100    0.03288819680336
H         2.99905080290152    0.81234487423551   -1.18187765372698
H         3.13847525726055    0.50883444734951    1.58892588531943
H         4.84586869420297    0.36684688485612    0.96239085733126
H         1.30615315023890   -1.21623842255831   -2.51949082782757
H         2.02429467765287   -2.65078152603457   -1.92331117718461
H         3.30899108807082   -1.38086391562481   -3.92602888474937
H         4.35671746500719   -1.89125151874343   -2.54373682231047
H         2.36090779329111    1.26687438647739   -3.10971395976830
H         3.71233519398427    1.44573602015953   -4.32859186135396
H         3.39072653757078    3.29252386929247   -2.31191158287908
H         4.91677366974086    2.92858907993437   -3.08597855061482
H         5.51523244148126    2.44191550928911   -0.78598159359776
H         5.41550511165018   -0.18465562734494   -1.03934647198616
H         6.16497263266251    0.79133062780034   -2.23123113529966
H         0.45095219154837   -0.04948705301897   -1.07418296624269
