33
 energy: -44.348727475040 gnorm: 0.125187202510 xtb: 6.4.1 (79825abcba525fcdf90b791dcacef51065a7a4e7)
C         0.00743790614394    1.92875305915834    0.61177045630843
C         1.29500741153040    1.31782801841888    0.12210824780500
N         2.29855745987447    2.13977893834959    0.06311476904851
C         3.45704538920496    1.33449508912395   -0.41327353901668
C         3.77524713326841    0.29856403050589    0.70276181326447
N         3.39487093070637   -1.01517101979688    0.04657958094308
C         2.29675829034894   -0.88181253386500   -0.63761825667350
C         2.20675051952426   -1.51049275296796   -2.03210181928603
C         3.54632152308043   -1.15330754827374   -2.80002149257689
N         4.25506019707016    0.15844495531139   -2.82832186722171
C         3.40938427752872    1.27514214718581   -3.27286194370173
C         3.99969869862866    2.47891325012711   -2.50275903766088
C         4.62432278053703    1.90288764872088   -1.22725945714565
C         5.26737525650150    0.62926152221180   -1.86045336828416
N         1.25234162040785    0.02496821276468   -0.39767810941381
H         0.08336080753412    2.93883404155257    0.99967899106852
H        -0.52991819116050    1.30316517121571    1.32712055051978
H        -0.65107538696958    1.88892766190349   -0.27427862792077
H         2.98609548343167    0.78155697010152   -1.19003677035314
H         3.16156105118023    0.34407735620812    1.61214005380245
H         4.85041780338881    0.20611445959205    0.88876177372579
H         1.31495624707145   -1.23613610427479   -2.60904870868784
H         2.15652362164971   -2.60424804404865   -2.03597422871911
H         3.48306675609052   -1.39650195660325   -3.87197673115130
H         4.32532984675130   -1.81241776924022   -2.39596653912645
H         2.34036237054327    1.10089831443417   -3.10520531968636
H         3.51793610114062    1.30373245280100   -4.36269495947177
H         3.18758988324759    3.20274738980679   -2.38839434069753
H         4.71286883301596    2.98834216643739   -3.16403694064727
H         5.21905881994319    2.54551345474507   -0.57233980415091
H         5.56468227936209   -0.07432680008595   -1.07857635682479
H         6.19951787072430    0.86877383558253   -2.38539312395392
H         0.36198321275165   -0.32298231652300   -0.75388526891425
