33
 energy: -44.344906245142 gnorm: 0.113852828316 xtb: 6.4.1 (79825abcba525fcdf90b791dcacef51065a7a4e7)
C        -0.06608502026856    2.01906457376858    0.15770630364344
C         1.30736749109272    1.40489737405424    0.07249729080293
N         2.40996349544061    2.07407806694789    0.22308115553616
C         3.54012942238391    1.25523797479493   -0.29629159689120
C         3.96786145344176    0.14512969784074    0.70602837806854
N         3.36666251428934   -1.09022082539444    0.06288774230586
C         2.29674745319865   -0.83698404660959   -0.63203343497027
C         2.28242726159180   -1.64718087123030   -1.93253359772275
C         3.54307318322947   -1.20301864555379   -2.78413453510878
N         4.11258279407382    0.17404228227877   -2.84042005421602
C         3.31707336005377    1.36184736301871   -3.18112533200623
C         3.94533098622062    2.55545450367255   -2.42535498466363
C         4.59655228122420    1.88217963742401   -1.21231265413716
C         5.17409280759220    0.61088978313812   -1.91005442259348
N         1.27292630218702    0.09743240027471   -0.41003132463251
H         0.00537056071690    3.01839876967026    0.57330969617685
H        -0.72055080924219    1.44640897695645    0.81768936502900
H        -0.56668597089511    1.97860746846302   -0.82619953975808
H         3.05194753458589    0.65616854540843   -1.02683232738632
H         3.58816631304661    0.38812572015339    1.70724533031040
H         5.05305377242994    0.00147887397292    0.73530205023745
H         1.38319142324268   -1.31437051907286   -2.46549560286941
H         2.36096524203556   -2.73870091934892   -1.89711968671430
H         3.18228186045379   -1.51137019316838   -3.77760404623000
H         4.45098083547173   -1.74950013016563   -2.49847330430668
H         2.25996763329655    1.34299320846502   -2.89224906622973
H         3.40815655071174    1.64639420212932   -4.23520021241541
H         3.14612810846684    3.25475933259356   -2.16308910747548
H         4.70987352986883    3.12551320981003   -2.96934551430321
H         5.23184817627378    2.55157496079076   -0.62587624447211
H         5.32691374204474   -0.17778903421464   -1.16884517856573
H         6.14521740765135    0.83679707538578   -2.36579629582231
H         0.34527313172596   -0.32657997655351   -0.42911825499013
