33
 energy: -44.346666102749 gnorm: 0.113125734557 xtb: 6.4.1 (79825abcba525fcdf90b791dcacef51065a7a4e7)
C        -0.23441209484318    1.62830384305049    0.49322487273019
C         1.14549879100103    1.19720531405921    0.06797940457124
N         2.27510417362201    1.69880604578514    0.46620623872630
C         3.38637300905598    0.88861982525968   -0.10493474159068
C         3.37330113433375   -0.53544672408144    0.52100773547728
N         2.84113970958759   -1.33966057062746   -0.64997699913418
C         1.92942506406602   -0.77803344287413   -1.38829529390092
C         2.07377502230421   -0.83583383457120   -2.91267936959277
C         3.56032498820689   -0.49113559841101   -3.34056331813335
N         4.39395967800541    0.56605527756441   -2.69930932303854
C         4.07396133395840    2.00018881790642   -2.72496643847352
C         4.71543864337127    2.62533626680798   -1.46469186926004
C         4.76229479765214    1.40321599062482   -0.54106508639648
C         5.25097991447121    0.29561612342184   -1.52645024377104
N         1.04689604243897    0.19786478949446   -0.89901630595681
H        -0.63590889116325    0.88310530876826    1.17144340605513
H        -0.94389997445638    1.79002474005285   -0.32059994450773
H        -0.10923508551994    2.47973729814346    1.18582907778198
H         3.02618145979295    0.74243504130917   -1.09477692449168
H         2.92259013561714   -0.60067185221214    1.52013541487258
H         4.35438219477189   -1.01736119493873    0.58713843436043
H         1.37221391957389   -0.10654694638001   -3.33622271494460
H         1.83205462232771   -1.83059989762701   -3.30107362379106
H         3.47209411309881   -0.25804406655152   -4.41299810207329
H         4.22892476001231   -1.35451546645176   -3.23060789044805
H         2.99416670306303    2.16935498980353   -2.64308938758586
H         4.46682532839309    2.57727455872200   -3.56934006886340
H         4.18181223162598    3.48436257201129   -1.04773560332322
H         5.73122156157825    2.98666325902081   -1.67216666327078
H         5.45232995623410    1.49950070346555    0.30165631533650
H         5.33066778739172   -0.72571460362145   -1.14527700521191
H         6.27092417795333    0.54173155774157   -1.84419013586183
H         0.13586711707840    0.08017105097773   -1.34271179546214
