33
 energy: -44.346801374627 gnorm: 0.118459442231 xtb: 6.4.1 (79825abcba525fcdf90b791dcacef51065a7a4e7)
C        -0.05893356681043    1.90869769792519    0.53394058877965
C         1.32043901192446    1.45958525434874    0.12594179911790
N         2.38405219863056    2.20118057360291    0.19636630713890
C         3.46466572595509    1.31394398905804   -0.31608644701666
C         3.74690962852238    0.22906537274720    0.76248537588508
N         3.34090338196723   -1.05352734077495    0.06157467063866
C         2.26817698402716   -0.83371029147636   -0.64035201828798
C         2.36389235333335   -1.56553065725673   -1.98318563294103
C         3.65760342549840   -1.23084974141219   -2.83526115747405
N         4.23279575460816    0.13952498327218   -2.95787005156024
C         3.41030700227475    1.29611869620328   -3.33944505788886
C         3.86107234969023    2.47671023382542   -2.44859788358949
C         4.56424295747328    1.81335610120490   -1.25932402691902
C         5.21762925581648    0.57263130289472   -1.94508115835142
N         1.31592716048576    0.17043313041614   -0.40467212439975
H         0.14553985767521    2.88356829076649    0.96326431623112
H        -0.49178995811134    1.23802843595205    1.27870607240337
H        -0.80306881494422    1.84368210082437   -0.27990491105411
H         2.92319791302778    0.74766991846551   -1.03514261986152
H         3.14269958699313    0.45306187017984    1.65153354611784
H         4.78706236853238    0.23259870241279    1.10483704719560
H         1.57890066964078   -1.15238407377547   -2.62858029652996
H         2.25904555504569   -2.65203391590980   -1.89741744059861
H         3.40554105172214   -1.54603857072669   -3.85964061862044
H         4.46589809907321   -1.87272039013327   -2.46216272417690
H         2.34825995961812    1.05192194735811   -3.45649853965990
H         3.66149450980643    1.58281538772769   -4.36659974340449
H         2.98202181752924    3.04899852598592   -2.13828812599302
H         4.57408609137560    3.11625261671871   -2.98526805208357
H         5.30534613816326    2.49899520323747   -0.83948628343510
H         5.41851616885840   -0.21403360563040   -1.21325985147226
H         6.16239080056501    0.85498639301321   -2.42416254355490
H         0.37230280256344   -0.07198953955204   -0.70715440196120
