33
 energy: -44.345569585027 gnorm: 0.104058947822 xtb: 6.4.1 (79825abcba525fcdf90b791dcacef51065a7a4e7)
C        -0.07733602081297    1.84356175567572    0.35384973407630
C         1.31527916184709    1.39641473021665   -0.00880187270220
N         2.36946716226687    2.12834010992615    0.18911004865336
C         3.51611861535498    1.31092868432789   -0.29519478716925
C         3.87686130957044    0.25917450496716    0.79274742509136
N         3.43753435118160   -1.01066433339656    0.08871468976742
C         2.38968235589273   -0.82524561198495   -0.65920816610875
C         2.24015651157789   -1.53728490658775   -2.00775059178087
C         3.53879791552834   -1.22746907600717   -2.86172777289910
N         4.13851186137786    0.13770803531681   -2.88272028192657
C         3.34638592860503    1.33526394723152   -3.19607726048808
C         3.91177897530933    2.51242917081840   -2.36830482596758
C         4.63622337544243    1.84777059422391   -1.19260537424441
C         5.17728061609975    0.58351408357053   -1.93117633111433
N         1.34586282656088    0.10482817697818   -0.53258952203696
H        -0.05169779079072    2.91937138834515    0.48978068665415
H        -0.37641838799549    1.47006415482589    1.33511769675194
H        -0.87267162868310    1.51732481901434   -0.33992221771214
H         3.09674096859952    0.71899575052423   -1.07277647601415
H         3.32346091421521    0.55299472254501    1.69445055206124
H         4.92620024324466    0.27823762451162    1.10525225339298
H         1.31136211220415   -1.18320425895880   -2.47186713865264
H         2.13314024215275   -2.61215407295355   -1.82874733633833
H         3.35216513920730   -1.53093357687790   -3.90351000644278
H         4.32709749103101   -1.94504715335622   -2.60056473198148
H         2.27449897960611    1.13521907271460   -3.08509118577262
H         3.47068024176685    1.60310974599503   -4.25113482042858
H         3.04139509260868    3.05272138931584   -1.98483111318719
H         4.57591373210946    3.27625836582994   -2.79363753077982
H         5.45525617475734    2.41026793229808   -0.73611808405188
H         5.52732512717120   -0.20643039937404   -1.26168681869114
H         6.08586982982718    0.82852183266359   -2.49354150710585
H         0.40933543937263   -0.07815528297456   -0.89331753759543
