33
 energy: -44.341405350325 gnorm: 0.119514882496 xtb: 6.4.1 (79825abcba525fcdf90b791dcacef51065a7a4e7)
C        -0.08196519841661    1.79906334025981    0.48474149888585
C         1.28595624069180    1.31870107307609    0.07379536682361
N         2.32197277812602    2.10154782700692    0.07790731738100
C         3.50324049350600    1.32207513574472   -0.38528925055173
C         3.78313908888281    0.26834627533360    0.72432899600735
N         3.39778323218323   -1.05929648454782    0.09980797528176
C         2.28078361609099   -0.97572838064114   -0.56132041109221
C         2.20082108501370   -1.53973267979972   -1.98379351661942
C         3.49939966849267   -1.15320642531154   -2.80599997241617
N         4.11074887196694    0.20693261250844   -2.81494245790953
C         3.49014100546489    1.44055843985055   -3.31774403713926
C         4.10071894304613    2.60998896319427   -2.51138103591774
C         4.62336761127903    1.88811826914595   -1.26454465144516
C         5.22238021652332    0.60858061404740   -1.92827788068141
N         1.28340896332967   -0.01426714111390   -0.33446180443823
H        -0.16564540738544    2.84734505078742    0.21902738955998
H        -0.18100876436919    1.71926299030766    1.56901997468043
H        -0.76895458684588    1.24666057541890   -0.18099535786618
H         2.96036213909006    0.72536509677653   -1.07819307536154
H         3.26040832939432    0.61943614966900    1.62385070048064
H         4.83844984531746    0.24096318493684    1.01536892706547
H         1.26537129349559   -1.14564887647112   -2.39980788031749
H         2.06040288892446   -2.62174117838858   -2.07532873096830
H         3.23937711456918   -1.42576198454510   -3.84056966574622
H         4.31325137378026   -1.75296545352799   -2.37882885963385
H         2.39421827181719    1.45518633166554   -3.32185153688597
H         3.81101262556112    1.55887205210039   -4.35859954707769
H         3.30194699329366    3.33967053369498   -2.34993740837961
H         4.96859892554230    3.03102868204756   -3.03571662708653
H         5.33039482279149    2.47816545582981   -0.67500630524272
H         5.51400651830721   -0.20009985666820   -1.25318555719551
H         6.01135435448818    0.69578141586731   -2.68440853997692
H         0.36716209436179   -0.42897068111116   -0.16357046803750
