33
 energy: -44.343907698220 gnorm: 0.114473586937 xtb: 6.4.1 (79825abcba525fcdf90b791dcacef51065a7a4e7)
C        -0.08451154739522    1.82997428996247    0.67743430602051
C         1.24600652839048    1.38653925082453    0.12614425869407
N         2.32006959987281    2.11537871909703    0.16326276928942
C         3.45936835095764    1.32623202748772   -0.38150141164165
C         3.84686887530387    0.25114395750017    0.67394606586932
N         3.19455572758362   -0.97835195243269    0.07063163268166
C         2.17149910320552   -0.81811038299734   -0.71641367160571
C         2.26731331932410   -1.54699306153623   -2.06083707302619
C         3.65514288209628   -1.23634850070355   -2.76023783159908
N         4.25980222533207    0.12491676547161   -2.83200125986272
C         3.48012327254769    1.27725363356909   -3.30530530488948
C         3.98181366841674    2.50279295569897   -2.50721096358761
C         4.59474382990540    1.88539997612784   -1.24546517628597
C         5.28800306055260    0.65688436348547   -1.91383299715267
N         1.21502084201878    0.20403659560055   -0.61156303817284
H        -0.11681814260668    2.89777132214051    0.48964001071667
H        -0.04127054068446    1.67633461870450    1.75741699408473
H        -0.96978007351776    1.34081042749264    0.23321910978862
H         3.04560234449458    0.77727779621288   -1.19288444798339
H         3.45838042020319    0.40288761482467    1.68967310935326
H         4.89370773480706    0.02297999525746    0.90023012243883
H         1.38832245734958   -1.21409943375866   -2.62651649351949
H         2.23426503296801   -2.63687777303618   -1.96135092726150
H         3.48295048336327   -1.49811226390997   -3.81572929577364
H         4.27384357664322   -2.00164015289102   -2.27435843508049
H         2.40141079068900    1.15674042512162   -3.15320849889693
H         3.60241995339852    1.34901817406386   -4.39168934109171
H         3.10450783872342    3.05547188188656   -2.15876246278038
H         4.67034086355915    3.20799809281322   -2.99098150561770
H         5.31525095391529    2.50785014514334   -0.70785574892959
H         5.74160657482637   -0.08276211323656   -1.24905740313259
H         6.16670179789967    1.04278928352615   -2.44372323794731
H         0.30994303024973   -0.21481578481755   -0.82624430674317
