33
 energy: -44.340229276024 gnorm: 0.116616662037 xtb: 6.4.1 (79825abcba525fcdf90b791dcacef51065a7a4e7)
C        -0.03238473697033    1.88310119261670    0.66057548563624
C         1.26428343869071    1.35501401751859    0.10325216553468
N         2.27964688156044    2.12311594814505   -0.15219398434362
C         3.48073048323255    1.28657384720132   -0.42626998177280
C         3.70151575126532    0.24555641022821    0.70840043351702
N         3.27114902448488   -1.08812023621551    0.12766638550829
C         2.22772948046910   -0.88894183293964   -0.62291082649540
C         2.26464628013173   -1.52339644096804   -2.01719526449614
C         3.63694103470871   -1.20853282385113   -2.74479430212792
N         4.18530024637707    0.17332683394452   -2.86129363038636
C         3.47162953502978    1.37252220041253   -3.32216327562198
C         3.98607206818956    2.55084334340185   -2.46338354587883
C         4.63260700681806    1.86583540935296   -1.25441017461493
C         5.27696551943610    0.64614329740425   -1.98497692564555
N         1.20915957624837    0.03696039014728   -0.34750352256563
H         0.06548132701881    2.96332313136691    0.65396408185847
H        -0.00965042656402    1.46755334424540    1.66985279290038
H        -0.95784204476190    1.48131906821959    0.21067695813895
H         3.20093593777031    0.61823240548110   -1.20468517812503
H         3.17622550539575    0.41186514926617    1.65817009361540
H         4.72032576627969    0.18536993314976    1.10531177120120
H         1.42888230171522   -1.21563809739755   -2.65767920516226
H         2.14861187698250   -2.60697596208746   -2.12316600538306
H         3.55979824228158   -1.53930551569714   -3.79211045885384
H         4.26369886190258   -1.86023071282035   -2.12269693222310
H         2.38262612234876    1.25662421915576   -3.27838298904874
H         3.68887327075465    1.56937996653256   -4.37780956120868
H         3.22039565308279    3.28378305729659   -2.19305990181936
H         4.77007750725944    3.08361244491911   -3.01737856362583
H         5.34719697644089    2.47945513880009   -0.69904486366628
H         5.57461241487282   -0.11444455416288   -1.25856650583362
H         6.15808810860236    1.06693854583529   -2.48334635378644
H         0.36469081721225   -0.17846736788130   -0.87774366116717
