33
 energy: -44.345315883845 gnorm: 0.116595120722 xtb: 6.4.1 (79825abcba525fcdf90b791dcacef51065a7a4e7)
C        -0.10626537598150    1.89877724077932    0.32739771142933
C         1.28252628026973    1.34987169774569    0.12542209948897
N         2.35169347737473    2.08615693934647    0.15643459332912
C         3.52832503771746    1.30955034539134   -0.32308862777916
C         3.91280893122214    0.26191947756294    0.76069275504676
N         3.37662200813682   -1.03364904079826    0.18175688959184
C         2.33104359415052   -0.84573435824187   -0.56872052944151
C         2.22787889112288   -1.60275250147356   -1.89695438211812
C         3.46639532894379   -1.19276820945366   -2.79680006774454
N         4.09388663838810    0.15931974089469   -2.84060475569388
C         3.50492478074878    1.40249375139209   -3.35774936041612
C         3.97885319812952    2.53490201171841   -2.41772923143359
C         4.64520194994481    1.88666407085023   -1.19927660030440
C         5.15136183284415    0.58790141088735   -1.90183779910610
N         1.28027938106730    0.07646638471663   -0.44195656514780
H         0.01591722203931    2.84834115645311    0.83720227841544
H        -0.49663996782172    1.16786363845742    1.03817934615910
H        -0.66877843939589    1.89885245972815   -0.62333245072469
H         3.10481446013313    0.73501575782146   -1.11140600432394
H         3.31082018792686    0.32498755863356    1.67681655494154
H         4.97393595199693    0.19423177321826    1.02253752525845
H         1.27544015136765   -1.43121436625782   -2.41355037084817
H         2.31521832928265   -2.69169777610050   -1.82341274826227
H         3.05561038910085   -1.42819546462831   -3.79081337487578
H         4.34629833266623   -1.82434691903386   -2.61954408076993
H         2.41849394016008    1.33771120533864   -3.22833244372770
H         3.75382767868222    1.69154083038676   -4.38480146647764
H         3.09688050101359    3.12428126056979   -2.15072336857988
H         4.69364061310414    3.17551645938611   -2.95074893260991
H         5.40588975484435    2.54501605441806   -0.77087801512301
H         5.38166683895738   -0.21472272038029   -1.19649124800195
H         6.01023648416927    0.80329516596584   -2.54817951063533
H         0.52221326686527   -0.07302810587178   -1.10804842095439
