33
 energy: -44.342605833829 gnorm: 0.124244902434 xtb: 6.4.1 (79825abcba525fcdf90b791dcacef51065a7a4e7)
C        -0.11400950701238    1.75182034750631    0.53382084991791
C         1.18361018264176    1.12623208842749    0.09149047690404
N         2.29026486476347    1.63670565290038    0.53974082683245
C         3.40208152628870    0.82617080892727   -0.02983720921092
C         3.28068231608321   -0.60866034687119    0.55877317498202
N         2.88106059126428   -1.43249168447132   -0.65067519161081
C         2.02026478604240   -0.78906357428389   -1.38333702340358
C         2.13115821964876   -0.78636608713474   -2.91161054553451
C         3.62293548004428   -0.48680606055552   -3.35500287331997
N         4.41055825538464    0.64831893311803   -2.79380089692712
C         4.03489101215676    2.06911395900649   -2.79724584768794
C         4.51916032433581    2.54683786420688   -1.40877274087934
C         4.76846368416774    1.34948793251703   -0.48515978829987
C         5.18205500950180    0.31503086172654   -1.57851028409107
N         1.09179495577909    0.14180070230658   -0.89133681116306
H        -0.59575458743945    1.24110401124483    1.36061671572601
H        -0.84248950363139    1.90705303197037   -0.26433780508811
H         0.12358770222344    2.80422065773416    0.77111802490261
H         3.08647504691018    0.81169050163054   -1.04525749843520
H         2.60198634559105   -0.69911612304062    1.41716724392058
H         4.26041628381714   -1.00989189200000    0.83853999329933
H         1.60306032645417    0.08324364208141   -3.32188831113590
H         1.90583368873173   -1.73497516477811   -3.40981535848514
H         3.62090689311887   -0.30866218942633   -4.44150798825166
H         4.24013770092531   -1.39421352348387   -3.34038217130332
H         2.94271743319342    2.14921563602252   -2.84216897783636
H         4.57419375117675    2.48079528872559   -3.65748299095591
H         3.73476536905167    3.15609486529978   -0.95044280114657
H         5.43930210272435    3.14578429589922   -1.41326759375145
H         5.57804660369659    1.49537233448201    0.23518170317617
H         5.02935132682469   -0.76469868035327   -1.50350790529793
H         6.23692022079867    0.55383569380314   -1.75753371348930
H         0.15255124799065    0.12777463795643   -1.28922589208344
