33
 energy: -44.348747409755 gnorm: 0.121236629479 xtb: 6.4.1 (79825abcba525fcdf90b791dcacef51065a7a4e7)
C         0.01977115448318    1.93469844340928    0.70101176045705
C         1.23600186678367    1.23139716338398    0.15604949080338
N         2.23153112520976    2.05537552829771    0.02885908860568
C         3.41853182511271    1.31264976415454   -0.47800376220217
C         3.74133162872080    0.31156914881769    0.66811067442093
N         3.39943895651833   -1.02654241779845    0.04063334592295
C         2.27119387434714   -0.92073480268630   -0.59782599257807
C         2.21866061398280   -1.47527953830125   -2.02528702947603
C         3.58944358812977   -1.19085336699924   -2.76811147176732
N         4.21028845832958    0.16445507940123   -2.80679872393495
C         3.65867744942775    1.35055727819885   -3.47663684940161
C         3.99463054943904    2.55545844339411   -2.56782269892190
C         4.56257884660012    1.93071214567308   -1.28876573863569
C         5.19670689569361    0.59741292539344   -1.79548985908161
N         1.18847494674421   -0.10881204005165   -0.22482474718138
H         0.41275355287255    2.88698980718919    1.04043319082032
H        -0.54247940889794    1.37835502930464    1.45347029479065
H        -0.70439247617620    2.24266636164935   -0.07426341007844
H         2.94979496244444    0.70505036287965   -1.21421311659995
H         3.19404589285837    0.45168515044587    1.60965020270628
H         4.82591400598136    0.27608071492035    0.81493205108257
H         1.36418982712381   -1.04336098906676   -2.56078899307809
H         2.08795616712902   -2.55332027240121   -2.16522592071209
H         3.56589077070437   -1.50062364474739   -3.82438811949970
H         4.34111680613666   -1.84971149741942   -2.31486320753539
H         2.61032691841178    1.17941366166779   -3.74672668108477
H         4.11121741986462    1.50955635852501   -4.46165652898764
H         3.04539360169002    3.03366077296510   -2.30935099540640
H         4.70317342528072    3.24147410712621   -3.05028246501595
H         5.23355034908697    2.58973234231383   -0.73101287628835
H         5.20262034734586   -0.15307969778415   -1.00082923343482
H         6.14602621080590    0.76422028814030   -2.31777894578101
H         0.26974743830965   -0.40205028068234   -0.55745413297162
