33
 energy: -44.341480152230 gnorm: 0.130995451487 xtb: 6.4.1 (79825abcba525fcdf90b791dcacef51065a7a4e7)
C        -0.00314499661850    1.85848682731961    0.44004079632424
C         1.34311953660939    1.37149498740181   -0.03032550092397
N         2.34561304428781    2.19405918329893    0.03743237904536
C         3.52540423081988    1.36580646109564   -0.33621498389634
C         3.82777972263560    0.33405766510443    0.78806429020539
N         3.44880755128751   -0.96490446083965    0.10232495433556
C         2.38958930863390   -0.82302803263772   -0.63908606660745
C         2.22441529713070   -1.53639888037286   -1.98509653352888
C         3.50076088319537   -1.26207601063106   -2.88366276001395
N         4.06056541184822    0.11251815300953   -2.73903975975074
C         3.45530178328167    1.33582730555933   -3.28398645450166
C         3.90975009421385    2.53434526215534   -2.41933282283370
C         4.64569073926837    1.91216493710690   -1.22763532688752
C         5.12705078514445    0.54781392295494   -1.81365012141975
N         1.29925947882921    0.03286323572589   -0.41714070460479
H        -0.03621186513439    2.88112283308246    0.80007285610748
H        -0.29011069963863    1.17157541800293    1.23856502485266
H        -0.72405730427707    1.77641316929197   -0.39294068752059
H         3.12305925653408    0.79956696598556   -1.14143970339230
H         3.12410657165046    0.40756032164223    1.62776203793720
H         4.90555980098159    0.22951244195217    0.95114485965467
H         1.31810942275424   -1.23865067344183   -2.52675322578187
H         2.16339297959998   -2.61583123458809   -1.81206348059352
H         3.22395406167757   -1.36534328187077   -3.94429774323274
H         4.40403002102184   -1.87912536487181   -2.79480554889061
H         2.36048278333494    1.36483325456709   -3.24147172742863
H         3.79371375829705    1.45945417756249   -4.31865095677907
H         3.05843425421269    3.09311359075312   -2.01986421665061
H         4.58220788752922    3.13294611019810   -3.04773990816633
H         5.40580789582510    2.45833057856871   -0.66237111417789
H         5.37692945186201   -0.21549999959779   -1.07225133590817
H         6.04896064764677    0.68247383810838   -2.39137553891144
H         0.42780645814647   -0.40413247402965   -0.71763292186520
