33
 energy: -44.343441083498 gnorm: 0.119385445229 xtb: 6.4.1 (79825abcba525fcdf90b791dcacef51065a7a4e7)
C         0.00242905492818    2.02585414368677    0.49656860932936
C         1.22649949625330    1.29930361641143    0.00198838868177
N         2.27679005065712    2.06148550250285    0.04851546129264
C         3.49767468565841    1.31561782034409   -0.36457566225315
C         3.85389069342738    0.25264228052458    0.71391103811830
N         3.36515580146026   -0.99672193926084    0.00582333160478
C         2.27195439912906   -0.91655830254583   -0.69435309461191
C         2.29873119541425   -1.61862321235037   -2.05608452979037
C         3.67002523841661   -1.23783640204810   -2.75342694400824
N         4.10786450026715    0.18577621641770   -2.82711521590101
C         3.32447388097365    1.36456915154584   -3.22276988168047
C         3.99510428474620    2.53508711014454   -2.46729847841995
C         4.62558440976477    1.89053673839289   -1.22798030028805
C         5.15329451304904    0.56092412938426   -1.85266172988222
N         1.21927587090832   -0.02782821779797   -0.42480619005341
H         0.34653664662614    2.87864620513823    1.07175256196339
H        -0.47056873749020    1.35106890527508    1.21265206302715
H        -0.70786343487156    2.33193422167677   -0.29216984948238
H         3.06971269264402    0.74072492505739   -1.15022328465648
H         3.43314898051051    0.54947947353710    1.68371253294351
H         4.90158096312226    0.11444178786446    1.00093123442036
H         1.47454716384816   -1.23019665237699   -2.66705245804403
H         2.34037762111390   -2.70465622825378   -1.92328299612805
H         3.58191170974306   -1.44687919657102   -3.83081723705350
H         4.42315517425249   -1.80436031743780   -2.19094439976027
H         2.29440486194153    1.31068716291102   -2.85218649898137
H         3.22580663890563    1.58001027982238   -4.29243655884987
H         3.22129849597948    3.26365803134528   -2.20856137636166
H         4.76269995836278    2.96636143821217   -3.12320797122835
H         5.31439232099085    2.57612304978131   -0.72686783294828
H         5.30510332239592   -0.21709696787226   -1.10006826918271
H         6.07215952787655    0.84517584668935   -2.37869005466341
H         0.40437571684785   -0.33378166506945   -0.95680378027269
