33
 energy: -44.351011804154 gnorm: 0.112365771339 xtb: 6.4.1 (79825abcba525fcdf90b791dcacef51065a7a4e7)
C        -0.04210516411634    1.92601138570746    0.53184705202935
C         1.26196849758020    1.33517397611296    0.06159526957599
N         2.29863084004158    2.11716834212665    0.06509249224664
C         3.49303565817133    1.34196249385434   -0.37076893562106
C         3.81719155417332    0.29418415485453    0.73241913038874
N         3.37102706477117   -1.00728845909863    0.09346120077230
C         2.29014253691093   -0.86918297348009   -0.61673457859623
C         2.30378569357255   -1.55357305256870   -1.98762797416615
C         3.62976456986655   -1.21568305704891   -2.78721708020705
N         4.18655718988986    0.16415265482400   -2.88642107415890
C         3.40964222452593    1.34120596249249   -3.29963397185893
C         3.88431470317509    2.50613071036350   -2.40061737837660
C         4.64543793209466    1.85979061917300   -1.23794982818282
C         5.23694769651550    0.59869436057022   -1.94245458059115
N         1.22533335313929    0.01784157294453   -0.39313310317016
H         0.05949156480637    2.97682684848619    0.78077651005653
H        -0.52097689304834    1.36247037156014    1.33492919374235
H        -0.75081663201582    2.04343410114324   -0.30734824844509
H         3.04362739442089    0.76981539494806   -1.14638185632474
H         3.28271857144497    0.45651555302780    1.67774341205554
H         4.90822732857254    0.20154228220564    0.74632231809984
H         1.47413171563486   -1.07735228577440   -2.52458642465852
H         2.30252955362699   -2.64751284246562   -1.94144864405461
H         3.35954977507666   -1.55479360262994   -3.79925498700884
H         4.39774558125487   -1.91823002265794   -2.43911712313852
H         2.34779943194255    1.06960790778736   -3.30100266480083
H         3.61937476585988    1.59722736769658   -4.34404873833219
H         3.08732019203473    3.03277074831056   -1.86771411003451
H         4.63608730604600    3.13741912067474   -2.89227866699911
H         5.37519169979112    2.49924468464142   -0.73381039693785
H         5.50577289381409   -0.25079801686803   -1.30932318130729
H         6.11487012627305    0.88342759345070   -2.53405997359461
H         0.32490875948853   -0.33230238725090   -0.72073951015096
