33
 energy: -44.343303317363 gnorm: 0.114765980778 xtb: 6.4.1 (79825abcba525fcdf90b791dcacef51065a7a4e7)
C        -0.06390319941035    1.92811540923236    0.46564409209248
C         1.31298416978192    1.43809983807279    0.09835723557239
N         2.44087160557568    2.08049739731161    0.13566085981665
C         3.56017993581633    1.24928447596695   -0.38755622104032
C         3.85871549095244    0.17676932834509    0.69896491753753
N         3.22842611879847   -1.10238641935693    0.18160929924194
C         2.18231365828597   -0.90793311216629   -0.56645431899738
C         2.29736509692337   -1.55007983168026   -1.95293741944195
C         3.60978300767495   -1.18332570252874   -2.76212404745879
N         4.21477779792042    0.16477997881040   -2.96311763395293
C         3.38513373346341    1.33918747055183   -3.26685110770996
C         3.86793020676190    2.53906037569106   -2.41961616726261
C         4.64003669748448    1.89123968487048   -1.26504272357383
C         5.23040987961193    0.65087086476443   -2.00633835979249
N         1.26975475015008    0.15057734991003   -0.43446710867505
H         0.05757598548475    2.86810578466939    0.99305457294216
H        -0.67360144039798    1.14530280106984    0.92095718951903
H        -0.61494727404392    2.14449364925493   -0.46700787232589
H         3.16251997042767    0.67378851803277   -1.18853465223598
H         3.32224206374044    0.46844816471911    1.61152755756155
H         4.85987063853899   -0.09978640075838    1.04586572625612
H         1.41482966291647   -1.30413932286645   -2.55632849332224
H         2.27115151505227   -2.63061417723705   -1.77801813424446
H         3.51828475044992   -1.73519245292525   -3.71044038578888
H         4.48619282309477   -1.63804868374966   -2.28288141409477
H         2.33780217706788    1.20710343981269   -2.97201570646474
H         3.43867311121028    1.62926792449731   -4.32199269504683
H         2.96334753337192    3.04079576921372   -2.06390890612059
H         4.53912733120361    3.18725638045168   -2.99819570852743
H         5.31942613175927    2.55547576255481   -0.72391513913165
H         5.63267760008950   -0.18184489213302   -1.42365078983451
H         6.07892731944554    0.98947702480265   -2.61229361667727
H         0.34800938525318   -0.09589913856771   -0.79547408480668
