33
 energy: -44.339604869138 gnorm: 0.125830117706 xtb: 6.4.1 (79825abcba525fcdf90b791dcacef51065a7a4e7)
C        -0.00825961275248    1.96932455233186    0.41128760713692
C         1.28556537585796    1.38121193614583   -0.08968560224633
N         2.38433429883915    2.07237779086991   -0.05514788577872
C         3.56653873495210    1.23261816099621   -0.39384923501650
C         3.72582132717771    0.24469641955783    0.79719236498606
N         3.33904523690963   -1.04444118400388    0.09741422142383
C         2.31321547075216   -0.84221884257798   -0.67624070790561
C         2.28363366871910   -1.62120310971097   -1.99541963246237
C         3.63298853163906   -1.23386911562248   -2.73091007936889
N         4.12581644013510    0.16806156360348   -2.85547759972240
C         3.30199946040508    1.34598581507201   -3.16144538999608
C         3.93346273566788    2.50397670716619   -2.35465812423736
C         4.70957015495459    1.85158666640190   -1.20535206122735
C         5.24893770903664    0.63012569298293   -2.01386319637728
N         1.24483744850880    0.01742748239033   -0.37589863106332
H         0.23758181712445    2.96440343249399    0.76608462777625
H        -0.47829526110842    1.43550929675963    1.23950575362021
H        -0.72283512811056    2.10153884453476   -0.42070398304073
H         3.20815354747984    0.58247753806718   -1.15527731365872
H         3.05342113792048    0.53171666949343    1.61642872425546
H         4.73319759390070    0.09283636954993    1.19877231314282
H         1.41628038227885   -1.26720380795138   -2.56622527435214
H         2.18945812064160   -2.71156917776997   -1.96269091267079
H         3.47528084744125   -1.45658061890392   -3.79756869153892
H         4.43095652503522   -1.89421775754708   -2.36796738228622
H         2.27753001135922    1.37772245418638   -2.77320239232670
H         3.19366136388440    1.56852668063249   -4.22872010628658
H         3.09195156615851    3.09190360759575   -1.97685290255074
H         4.64381497416268    3.10001202120760   -2.94250123894505
H         5.38892531388722    2.55849875908854   -0.72125445652129
H         5.82826180396945   -0.08274356335134   -1.42144386180412
H         6.04008336659056    1.12887075291987   -2.58584192200017
H         0.32619382678541   -0.28997347301199   -0.69572632551676
