33
 energy: -44.345288790932 gnorm: 0.108612611538 xtb: 6.4.1 (79825abcba525fcdf90b791dcacef51065a7a4e7)
C        -0.05886066340993    1.86705031840360    0.63241959883969
C         1.20476247010795    1.26878679959345    0.07012870724565
N         2.28169105451968    1.99230558201705    0.12436558961609
C         3.46969885185087    1.22516390025990   -0.34216766607719
C         3.73682626369480    0.11012134983506    0.70914744522235
N         3.24116618872271   -1.10976821476574   -0.04407993903319
C         2.16243456216641   -0.94960143209065   -0.75291505461349
C         2.16897825259441   -1.45667020150356   -2.19886217243331
C         3.45731233241269   -1.00205568171050   -3.00213876978484
N         4.26798190844132    0.24074031874665   -2.85354881764198
C         3.72077947577289    1.55116704084915   -3.23189726604244
C         4.17129171625306    2.62958628426347   -2.21964970803432
C         4.70427889647750    1.76389514115016   -1.07275676526242
C         5.27567069440742    0.51059556973114   -1.80714502446241
N         1.16416411027571    0.01251574839068   -0.53288001669983
H        -1.00990394918075    1.49599890674452    0.26589753642881
H        -0.01890312617439    2.95330143760394    0.53093343606431
H        -0.04491294462999    1.80094775730655    1.73502773833539
H         3.04857229926702    0.63842891929869   -1.12273795812458
H         3.05308501289321    0.31502258393019    1.54351201741944
H         4.75180677670451   -0.08408957328361    1.07140639771278
H         1.25769048456891   -1.12236961939148   -2.70997276359912
H         2.25270583359236   -2.53785097998670   -2.35011094652583
H         3.24296443109044   -1.01248699982805   -4.08203639561046
H         4.23089362186064   -1.76896976568346   -2.86814090909986
H         2.63220811910243    1.58835682094413   -3.10980380093203
H         3.89393859077562    1.72120098132513   -4.30027981939104
H         3.26981913899927    3.20145020038918   -1.98120741809944
H         4.84853374479580    3.37576892578820   -2.65550819725478
H         5.42020508376311    2.35856287305212   -0.49880675805637
H         5.49405279769919   -0.37932464109964   -1.21123317984384
H         6.17628324916815    0.73956537724880   -2.38876999011148
H         0.26227044054427   -0.34750471065688   -0.84539287439315
