33
 energy: -44.340363095443 gnorm: 0.117751481102 xtb: 6.4.1 (79825abcba525fcdf90b791dcacef51065a7a4e7)
C        -0.18944211559915    1.73501337572375    0.66495610801650
C         1.08344459042659    1.14995677558208    0.10970668771452
N         2.18510029220718    1.62676269104929    0.60489057919553
C         3.31483532126881    0.93102590045411   -0.07125382717801
C         3.34547549966347   -0.54198810663973    0.42797691424736
N         2.99912416373122   -1.38854496529351   -0.78220621539511
C         2.10322853642938   -0.68174013306187   -1.40635403784078
C         2.09210001914562   -0.62910724895270   -2.93770330561485
C         3.59829500970580   -0.47036833959127   -3.40451268640171
N         4.53903106456290    0.47589054196013   -2.73861789806245
C         4.08821685195383    1.87146486931267   -2.83314359785761
C         4.61275200834945    2.52052228546045   -1.53153620243780
C         4.71212825376501    1.39611803313643   -0.49485912787092
C         5.25324526228898    0.29339453273403   -1.45806616279785
N         1.11204993193016    0.14862279792707   -0.85982758368104
H        -0.58573780982428    1.04940235832987    1.40616334584712
H        -0.93087207983096    1.87417279090930   -0.12419140971576
H         0.03839497927146    2.69370817519593    1.16425895693392
H         2.98120664957850    0.92051236131846   -1.08094530003842
H         2.58066326464405   -0.71250415517218    1.19715659486004
H         4.34130062143122   -0.71699026964339    0.84850212162845
H         1.36227417261293    0.15356159249047   -3.17899160012706
H         1.75483321075604   -1.51629446346823   -3.48358637555155
H         3.51894962555349   -0.26206118291011   -4.48272656341451
H         3.98147710739038   -1.49333501800666   -3.29844046816658
H         3.01038817331334    1.81770921162060   -3.02464598935834
H         4.54493765402075    2.37380680045290   -3.69302475280557
H         3.97055605911976    3.32602616569078   -1.16372682794941
H         5.61784309851384    2.94296301867689   -1.66097211327932
H         5.37581113478584    1.70602538820739    0.31697897128015
H         5.09298077059666   -0.73864633751243   -1.13562765315914
H         6.30146880094900    0.56088764123586   -1.63552771273713
H         0.22065497047359   -0.25566924189144   -1.14732398921652
