33
 energy: -44.344969839047 gnorm: 0.118740654886 xtb: 6.4.1 (79825abcba525fcdf90b791dcacef51065a7a4e7)
C         0.00010239278291    1.92747576145893    0.57716143631391
C         1.28203269386414    1.33637737212066    0.04981799004887
N         2.32668868719075    2.10649986763227    0.00737466683710
C         3.48699764513434    1.27476484914021   -0.41620785526933
C         3.74806167435177    0.24081501119497    0.71637048995341
N         3.36214529307216   -1.07636891680841    0.07041692749394
C         2.28135145224699   -0.90609238411624   -0.63289887351329
C         2.18188405260374   -1.45405163040493   -2.06040422071198
C         3.57193511737177   -1.19819329885385   -2.77736092439907
N         4.27354763289834    0.11501039668088   -2.86127737134360
C         3.57391542620082    1.31149441734092   -3.34988458779205
C         3.87413199352146    2.51113993666148   -2.42181395177890
C         4.62503730535845    1.88329232579494   -1.24248850689479
C         5.29073232258738    0.65234952677771   -1.93401181687539
N         1.25292533972907   -0.01728492679138   -0.28219984353882
H         0.16280310936076    2.99505875587957    0.67863035690557
H        -0.25460898145566    1.44367687576810    1.52209439364287
H        -0.81651781227604    1.76743055770626   -0.14935475008072
H         2.96056392048690    0.71909857127112   -1.15444766317614
H         3.12380302584434    0.45611744037454    1.59363718521036
H         4.73113028949346   -0.02205337638184    1.12085928109721
H         1.41495727702716   -0.80680819533833   -2.50350192594627
H         1.93440647173478   -2.50197457080675   -2.25902627874573
H         3.36552558352292   -1.47889962288486   -3.82178985129302
H         4.26194802419063   -1.87699449494560   -2.26001019536522
H         2.48011167744247    1.25525086430810   -3.39120665769647
H         3.96906162479436    1.55597047268763   -4.34206795921533
H         2.92269804360695    2.97468554799984   -2.14534554890414
H         4.49552250428691    3.16082048762923   -3.05205750819254
H         5.19269775557513    2.69360644230758   -0.77692296398802
H         5.59575592459473   -0.02657488314504   -1.13352327809526
H         6.25724493474286    0.88534888947958   -2.39594515684458
H         0.34393974576317   -0.41412143017517   -0.52085689231006
