33
 energy: -44.346745482721 gnorm: 0.112455004430 xtb: 6.4.1 (79825abcba525fcdf90b791dcacef51065a7a4e7)
C        -0.07728525144860    1.91668782865976    0.63535380950240
C         1.18845716798356    1.35923299949503    0.03704456620661
N         2.22509247742545    2.13499868022637   -0.06180424749169
C         3.40144220280284    1.31490025365424   -0.46325420591473
C         3.69628390309270    0.30619562338695    0.68370863332085
N         3.30426886314348   -1.03044579724274    0.08298000566805
C         2.26745531692960   -0.86898038995652   -0.68559604064431
C         2.28474494464925   -1.56979246731583   -2.04812608238735
C         3.62935157188255   -1.20333749604868   -2.80276251144104
N         4.22540925304045    0.16285679380484   -2.84786740403092
C         3.50596113553481    1.35798395446809   -3.31031927078643
C         4.04588371271108    2.52575285200305   -2.45276817605064
C         4.63149929453365    1.82009426528133   -1.22477783897934
C         5.29771809629984    0.59628228450187   -1.92834821294370
N         1.23494306797695    0.02023055225190   -0.34817771564281
H         0.31139532114686    2.85741214035405    1.01014188622162
H        -0.57098279595114    1.27789260809522    1.37022858567288
H        -0.86203567154860    2.12321427381072   -0.11419431943743
H         3.00873613728894    0.71124328602121   -1.24573468836610
H         3.27022670731219    0.67321543418113    1.62680066357402
H         4.74433815245646    0.12546007148782    0.94457608993379
H         1.38235803471728   -1.36741725383952   -2.63819255880168
H         2.31112929727713   -2.65544787861111   -1.90850313615738
H         3.58273862036812   -1.55843184727636   -3.84390032812631
H         4.43432151020374   -1.80421025556454   -2.36059062098255
H         2.41336289093570    1.32728593465036   -3.22929951834280
H         3.68444390574801    1.45552751308912   -4.38687213018329
H         3.22689478388940    3.22247950776303   -2.25185780955503
H         4.84559271587905    3.14014569824377   -2.88682447033842
H         5.28163703634712    2.42248025558412   -0.58442584898883
H         5.52078928443032   -0.23206336346964   -1.25096915421399
H         6.14013771650851    1.00444303776139   -2.49891962171471
H         0.34004387736226   -0.42998002820044   -0.15541599741689
