33
 energy: -44.342693552692 gnorm: 0.135315841377 xtb: 6.4.1 (79825abcba525fcdf90b791dcacef51065a7a4e7)
C        -0.07773105653596    1.90891673363440    0.37371929233670
C         1.25411753593460    1.26781628785487    0.08045621119602
N         2.26434304363516    2.07983047250369    0.15966229811604
C         3.43058145144635    1.31439087353196   -0.36140617924137
C         3.83681907010142    0.31338451371902    0.75792293400331
N         3.46283835104183   -1.00727653985446    0.11204852801959
C         2.36646935436902   -0.89300445812844   -0.57837121025529
C         2.24434492486912   -1.47911478754262   -1.98886222382797
C         3.55555100505203   -1.14290876817497   -2.81314159608947
N         4.12940819492631    0.23272491972378   -2.85924933925462
C         3.36602914287189    1.41555423699649   -3.28110651668198
C         4.10536490690644    2.51862687348269   -2.48914196495165
C         4.59527628458556    1.85687514454960   -1.19649684803228
C         5.17411454942395    0.57404218754734   -1.87167118776975
N         1.26090482551288   -0.06227996210071   -0.33701541336491
H        -0.09249220962873    2.99210629135783    0.31909887407703
H        -0.24110561385268    1.52725515322702    1.38341268091979
H        -0.87065208902337    1.50653646485179   -0.28177681388854
H         3.02169889456190    0.73048769969040   -1.15056245469103
H         3.36790978841552    0.48609248933040    1.73564829753414
H         4.92318828929974    0.22091653925449    0.85983694495501
H         1.28604241660792   -1.17674512826055   -2.42893630313692
H         2.13686190710664   -2.56702351869145   -2.05002068803268
H         3.17738582398194   -1.29592377301018   -3.83579022855348
H         4.27709365659268   -1.92709742569945   -2.55052971690162
H         2.28426704960250    1.33126759757639   -3.12630333121439
H         3.68656812037700    1.53743408080853   -4.32165299464206
H         3.53541290774675    3.43403035321855   -2.30549268499237
H         5.01231348411742    2.75177281415751   -3.06229567337430
H         5.32019580613657    2.47570227732533   -0.66063931710547
H         5.26726982684641   -0.29231836648885   -1.21174608647083
H         6.14929742885453    0.79778993202443   -2.31974824042150
H         0.43820526439515   -0.38165945307389   -0.84873150705449
