33
 energy: -44.339814923160 gnorm: 0.115733720149 xtb: 6.4.1 (79825abcba525fcdf90b791dcacef51065a7a4e7)
C        -0.13605726002701    1.71226801055372    0.68367570421885
C         1.11478330107546    1.03806911326415    0.18199110903434
N         2.27031594005164    1.47309300260095    0.58410395883507
C         3.41637020481072    0.83884675772413   -0.12428396922606
C         3.26519580995808   -0.62369036434940    0.38372376258044
N         2.68507083040148   -1.36042727801449   -0.80868332754246
C         1.79333141512843   -0.71462825434088   -1.50114773564401
C         2.08836825224925   -0.63022636223297   -3.00239859924528
C         3.62735072603119   -0.40897535360160   -3.30950325394151
N         4.58871151279989    0.58439834886656   -2.75021786628793
C         4.22388754827059    2.00788336014051   -2.76996970685821
C         4.68834747317160    2.61296130829385   -1.42507115646353
C         4.79378932485251    1.39360213496022   -0.50262597313742
C         5.30923957362603    0.30147838364390   -1.49164127168702
N         0.88039070668616    0.12835143302743   -0.84803729879234
H        -0.00334311783190    2.77206861326695    0.49470334814682
H        -0.11213852851323    1.61024193808818    1.77034774114264
H        -1.03048801140610    1.31425597611829    0.17192494265165
H         3.08345036501857    0.72192150875270   -1.12747305937382
H         2.60200445627528   -0.65467941285395    1.25829094274016
H         4.20775291894412   -1.12267983230347    0.63217994728466
H         1.48122489848447    0.13846501155226   -3.49628807511458
H         1.88916898786037   -1.58978309920392   -3.49066991969508
H         3.63042752249772   -0.42246059235183   -4.41043076940027
H         4.14025188194218   -1.30786253196567   -2.94416109396780
H         3.16529525207455    2.24031247980697   -2.93317675831114
H         4.71197300937744    2.44626461643187   -3.64742703101378
H         3.81886912545274    3.22269978369588   -1.16284556151158
H         5.56975815245780    3.26310787923752   -1.50150785084829
H         5.51395550867322    1.61133546740627    0.29081682778566
H         5.14620807807376   -0.73067220566010   -1.17094586958968
H         6.37291416188375    0.40043710803966   -1.73785516898554
H        -0.08304674094178    0.08120409859778   -1.18008638961024
