33
 energy: -44.342396752873 gnorm: 0.127831392691 xtb: 6.4.1 (79825abcba525fcdf90b791dcacef51065a7a4e7)
C        -0.06807564874383    1.82991964318462    0.54097238637503
C         1.30752049020936    1.40125940794903    0.09958894003459
N         2.34673185892223    2.17956861582705    0.07789260004363
C         3.47776000941205    1.32669503787382   -0.38135041982764
C         3.69851014095682    0.31413108916404    0.77878924303691
N         3.41208749288508   -1.02114781569366    0.11837022976728
C         2.39271759671101   -0.79205680623318   -0.65633283503323
C         2.29684106598165   -1.57111748476819   -1.97231031836326
C         3.49428561213902   -1.16250592244997   -2.92671877067992
N         4.22191437488595    0.13897730839155   -2.90427294625301
C         3.48244837386749    1.35179038462168   -3.28119564544686
C         3.97008102947740    2.52901715952404   -2.40544112705741
C         4.65366427449272    1.82543240410422   -1.22792579742478
C         5.21087686773636    0.51831326648056   -1.87409002063989
N         1.33924463406834    0.09799147558915   -0.39434521485516
H        -0.30543011843286    2.88677748572995    0.59767558525510
H        -0.38392159035102    1.48466596692743    1.52731855757364
H        -0.81526091033801    1.53509110601875   -0.21738050528755
H         3.02391490818488    0.67782657004481   -1.09120239557509
H         3.06057786169147    0.47317789628093    1.65821938374105
H         4.76315352754031    0.30671801386273    1.03494228872173
H         1.29263869000048   -1.40948114910063   -2.38326966396427
H         2.26047006463665   -2.65571422490719   -1.82682690395797
H         3.10772745625415   -1.15044207026960   -3.95757277217455
H         4.25565354996039   -1.94511796141125   -2.81546272957868
H         2.39413560171730    1.22387856274468   -3.25902887014353
H         3.76606786295093    1.50897948742877   -4.32770817503216
H         3.18080111332772    3.15687884022406   -1.98192867730554
H         4.73277061996165    2.99735651636715   -3.04135052370222
H         5.39024167900399    2.48575231509007   -0.76206104204552
H         5.46807345020826   -0.32507764956855   -1.22810137528256
H         6.09062774469773    0.80429131367704   -2.46236945979099
H         0.49093186120395   -0.18723317216001   -0.88394049480560
