33
 energy: -44.343708439291 gnorm: 0.117243268926 xtb: 6.4.1 (79825abcba525fcdf90b791dcacef51065a7a4e7)
C        -0.01030721567889    1.98381714943456    0.45668814931240
C         1.29523093878845    1.31008393054975    0.12129677223351
N         2.32755519599884    2.09780256090078    0.11980738120268
C         3.49663688898872    1.29392241028158   -0.33246119391915
C         3.80887255938080    0.23426966076973    0.76279463668168
N         3.41421824541439   -1.04588874183334    0.05103387584867
C         2.31198367700614   -0.90318600431899   -0.62459723788930
C         2.27563037297745   -1.53439297026550   -2.02036971418025
C         3.58436203637251   -1.21524244505917   -2.85529290589801
N         4.23240943882978    0.12725346463891   -2.89460375394628
C         3.36502888590351    1.26550351721716   -3.22901973470234
C         3.90124411483531    2.49492614574836   -2.45987235379374
C         4.58425427471940    1.91022640493472   -1.21871029951190
C         5.18075072509743    0.62707949297396   -1.87772510076274
N         1.27222928048038    0.00275550609786   -0.36228155213225
H         0.28166664825561    2.96596612165189    0.81254707260128
H        -0.65543542199260    1.51965247893089    1.20515210126724
H        -0.66173760726320    2.02496936798139   -0.43452099055090
H         3.04888316190884    0.83033914919063   -1.17833509416680
H         3.39343469699959    0.47365454030207    1.75059882064974
H         4.88878737585542    0.24350037140413    0.94399522844615
H         1.42086087205541   -1.11116802645990   -2.56229780623864
H         2.38998612900998   -2.62105598324738   -2.09054540325823
H         3.31878109644217   -1.38358793788648   -3.91045132049359
H         4.37110464783265   -1.92059202017726   -2.55854605969537
H         2.32409239692642    1.03854118328430   -2.97169344563810
H         3.20899348220924    1.46829153568113   -4.29432104166284
H         3.07399835886680    3.17544320597771   -2.23829423918787
H         4.74310080583355    2.98410102655227   -2.96722151706046
H         5.34755840773261    2.54277917400925   -0.75736181611930
H         5.35465271307681   -0.16437312610074   -1.14415812653121
H         6.15843974821968    0.90179817635593   -2.29060712429103
H         0.39276847909414   -0.04054843378089   -0.87741713353572
