33
 energy: -44.343694581281 gnorm: 0.117402657378 xtb: 6.4.1 (79825abcba525fcdf90b791dcacef51065a7a4e7)
C        -0.01769117578911    1.92679805522511    0.56330510013201
C         1.30785225036943    1.34351011213191    0.14671957670121
N         2.35256967443126    2.10951465268831    0.05728370306028
C         3.54794282127460    1.27636728263058   -0.25007708174170
C         3.79341114281379    0.11648401225007    0.75707557936194
N         3.31979937520452   -1.10272214931731   -0.01129228592900
C         2.32425232275308   -0.78791334215791   -0.78688496928178
C         2.22890429813847   -1.44766453633657   -2.16658120850584
C         3.60614989578132   -1.17966177698602   -2.90353538011940
N         4.21137367154173    0.18243511068640   -2.85660677128780
C         3.47374873980626    1.36335609574611   -3.32685280962272
C         3.86427725097988    2.49091949643478   -2.34365256577815
C         4.62327010943412    1.87362784758822   -1.16393193547365
C         5.21460743339380    0.60683995757537   -1.85829720464349
N         1.28036675085360    0.03739944249393   -0.33990569031048
H        -0.85313882301277    1.29420621085438    0.28338422993618
H        -0.23066820415790    2.89218031435271    0.10014701546184
H        -0.07167535582810    2.00890447595361    1.66360189463121
H         3.13777376809030    0.66057236289940   -1.01391833433432
H         3.30466006635906    0.34127194064077    1.71428173025264
H         4.82402941752463   -0.11532743528953    1.04556178555424
H         1.34670157724796   -1.09095295511450   -2.71239391684567
H         2.19341855118940   -2.53976309740216   -2.09658218261600
H         3.29370272176554   -1.27535469677050   -3.95494032131445
H         4.29482392139498   -1.95543994198647   -2.54515433183670
H         2.40914610736632    1.11008462003242   -3.38810871732164
H         3.70217545233892    1.58242890183915   -4.37574043174413
H         3.06427906964056    3.17488770194039   -2.04578301034008
H         4.56712029805008    3.16212368764615   -2.85445047906104
H         5.36672127877818    2.57850696537896   -0.78180053219561
H         5.35537726380836   -0.17782948141865   -1.11047544805916
H         6.11180876940527    0.94435937941285   -2.39020711069567
H         0.35229952367147   -0.17096615151889   -0.70864164047594
