33
 energy: -44.340864531480 gnorm: 0.115663780959 xtb: 6.4.1 (79825abcba525fcdf90b791dcacef51065a7a4e7)
C        -0.12324315150640    1.61761729283206    0.71790769519055
C         1.16780713769208    1.13254020583213    0.11068197986971
N         2.27724594888777    1.71391395746250    0.45324046141318
C         3.37176554056854    0.93884322824528   -0.19391824654716
C         3.22871011941283   -0.45095811787118    0.49013421568439
N         2.75439605301960   -1.39239441102993   -0.60068420304499
C         1.93523537570679   -0.75001955589267   -1.38048728008704
C         2.09784024787353   -0.86508008837365   -2.89977833037545
C         3.56067404747357   -0.54080201206836   -3.41620193723790
N         4.29540523536122    0.55662625708885   -2.72365064173955
C         4.21373893824486    2.02309953928725   -2.77447348077406
C         4.67026967004186    2.57338251459196   -1.40357494438739
C         4.81716558764771    1.33093478618292   -0.51836020075047
C         5.24776160359472    0.31292073697703   -1.62054393545672
N         1.01275985971137    0.19947353602966   -0.91344282183213
H        -0.78316107214773    0.79514697921510    0.97197821494858
H        -0.64797960902994    2.29511800368089    0.04153355883284
H         0.20691210274662    2.17157144430383    1.61481410318784
H         3.06177693466031    0.83814916647568   -1.20617476530097
H         2.59635514427809   -0.39037326701422    1.38573876585043
H         4.19908535197710   -0.87846688175927    0.76352594966062
H         1.41644101091236   -0.29152433441657   -3.54021971526687
H         1.96492861218395   -1.91398968142852   -3.18431572538909
H         3.47488878241300   -0.24778359114980   -4.47403642403979
H         4.19327854870337   -1.43665672407168   -3.37381656614092
H         3.16294209633580    2.30737798568627   -2.90210283037283
H         4.91183747797359    2.48123303964614   -3.48377526545872
H         3.80506155807590    3.07808021400487   -0.96399443079795
H         5.51135368260149    3.27777994978712   -1.44623473878991
H         5.57029113097407    1.33185557436077    0.27435645433589
H         5.35272858905779   -0.72302988394323   -1.28805650304712
H         6.21877506353983    0.64113210011200   -2.00942425936944
H         0.17588643710277    0.39130177720411   -1.46438382679712
