33
 energy: -44.336820581960 gnorm: 0.130466300191 xtb: 6.4.1 (79825abcba525fcdf90b791dcacef51065a7a4e7)
C        -0.07320236328467    1.87785024232092    0.46365629280040
C         1.24913678742249    1.33598935609973   -0.01450651460147
N         2.32941417528710    2.05531857582091    0.02747536833209
C         3.53069088682016    1.26034399440517   -0.34997904204774
C         3.90849450792360    0.23993180469812    0.76176003499537
N         3.35683056087076   -1.02866485765419    0.13927281164681
C         2.30387103335100   -0.83105716323502   -0.59828394043290
C         2.20153336138831   -1.57059459499925   -1.93639305853046
C         3.48061474959538   -1.12732646836996   -2.76052686880090
N         4.19617329411534    0.17947181423279   -2.82424700182053
C         3.42584946182845    1.35106835063393   -3.26442764498499
C         3.94746181996452    2.55415287836729   -2.44521910624374
C         4.61424693321166    1.85880849338508   -1.25326537226569
C         5.30176890027561    0.65178760461048   -1.96529671619560
N         1.18832896228652   -0.00187529850285   -0.40168255708227
H         0.09430898499200    2.63504323492061    1.22200953035550
H        -0.66631841814029    1.07401346886842    0.90399403739511
H        -0.50754786800664    2.42896256003945   -0.38953067122969
H         3.16001506762434    0.58180582009865   -1.08010291546675
H         3.45120205006323    0.48740196404462    1.72886549552858
H         4.97605322028469    0.15906839662365    0.99179127079218
H         1.35646834043072   -1.08927036913970   -2.44396415527733
H         2.20634325228524   -2.66521310083767   -1.91138184721093
H         3.26821318576653   -1.48777060634220   -3.77895620731390
H         4.22936444006511   -1.79489597288208   -2.31525671170442
H         2.37205799257724    1.06583680387248   -3.16724741866166
H         3.73041547855691    1.39167090643171   -4.31605870118098
H         3.10175731729085    3.11780379704439   -2.04072262042734
H         4.54558713886341    3.16199412971467   -3.13673413647122
H         5.36005780288521    2.52086362133490   -0.80488185587542
H         5.70313256703609   -0.11467288243474   -1.29731080428238
H         6.00833503455894    1.15587588225032   -2.63498100992413
H         0.33501666037944   -0.18119144855076   -0.93120596533030
