33
 energy: -44.344629995647 gnorm: 0.122965121455 xtb: 6.4.1 (79825abcba525fcdf90b791dcacef51065a7a4e7)
C        -0.01321580353487    1.85719042285535    0.47845859446554
C         1.20844433862264    1.05727518545732    0.10628146251823
N         2.32118080441343    1.51998298515068    0.58992935887847
C         3.42593112191858    0.77144406395598   -0.07093249144937
C         3.34677176205821   -0.65371089320286    0.54762029489461
N         2.80765622914895   -1.41039752193043   -0.65152136887620
C         1.96680492292495   -0.79061818425642   -1.42650857671924
C         2.09231826413736   -0.73943789905429   -2.95279543639990
C         3.54027220855323   -0.33222514067857   -3.45213449083572
N         4.40398741039378    0.66856504284949   -2.76204674726780
C         4.04905522186018    2.09071148726252   -2.65565654197802
C         4.54254169262047    2.56017634160235   -1.26761176039411
C         4.81281804157492    1.26048857778726   -0.50169902262084
C         5.20810454887595    0.22779405454915   -1.60345449378060
N         1.05730691013781    0.17127461273226   -0.95938506735023
H         0.16539616375308    2.90748125076840    0.27477292602870
H        -0.34667337496572    1.64641709950946    1.49640662438149
H        -0.90146701222653    1.49824610892612   -0.07152100843779
H         3.05812525904609    0.71793385067450   -1.06730139807048
H         2.62416094147107   -0.54250757246578    1.36683838096543
H         4.26696797193131   -1.17140920039406    0.83807212960583
H         1.33512017909115   -0.00920553978894   -3.26399966284445
H         1.93532106664699   -1.76105815892165   -3.31401877042859
H         3.55962348399703   -0.09393417456256   -4.52687895040759
H         4.16156310011285   -1.21899071821664   -3.27273245127726
H         2.97984701200811    2.24284799823302   -2.84254093529274
H         4.57195782261024    2.57064511289944   -3.49026632333319
H         3.76343523128870    3.20328203905133   -0.84815490409666
H         5.44850594031069    3.14558695263723   -1.47240707777007
H         5.59623641709825    1.38830679419825    0.25030947546647
H         4.90162127472903   -0.77997776921622   -1.31152366778108
H         6.26659195514408    0.31252548601222   -1.87592970564046
H         0.15217155430646    0.15983439236495   -1.42980010716285
