33
 energy: -44.340816770666 gnorm: 0.122100734634 xtb: 6.4.1 (79825abcba525fcdf90b791dcacef51065a7a4e7)
C        -0.01399889789600    1.79347994674718    0.63446192740888
C         1.25225904774552    1.31005158583273   -0.02411346752445
N         2.27437870236056    2.10867220730319   -0.08471676827391
C         3.47905823279394    1.30453736632841   -0.43060194783688
C         3.74573272064698    0.33953394283076    0.76002541390787
N         3.32747610402498   -0.99876672105435    0.18108354332151
C         2.31613636873179   -0.87827210117134   -0.62788834796086
C         2.23932564519981   -1.49722943600014   -2.02750134795590
C         3.59549898858943   -1.16788698656269   -2.77854048699255
N         4.25058977299147    0.16896442673753   -2.86508769337967
C         3.43762562302734    1.32686782121350   -3.26276253273332
C         3.99004673788939    2.53355712229457   -2.46946163716220
C         4.64222755664036    1.87581739831559   -1.24843807084643
C         5.22923552352630    0.54957417165635   -1.82556464125551
N         1.22195196540571   -0.01699046208865   -0.45017167648694
H         0.02059737907530    2.86908831520223    0.77000028686443
H        -0.12747537687724    1.40443098974600    1.64816875693567
H        -0.96437279147293    1.66191142322015    0.08693295358021
H         3.10394543756288    0.66339380382366   -1.19160182677227
H         3.21690686463414    0.67348546331061    1.66250557694038
H         4.78089577878752    0.12126532385667    1.04274635036342
H         1.42201203244455   -1.13431681047129   -2.66289822919537
H         2.15418134262165   -2.58589585226574   -2.10746540939089
H         3.36300165162933   -1.32996627057536   -3.84245214617266
H         4.42134045307928   -1.70318506727167   -2.29276018874559
H         2.37085874628495    1.28570526580734   -3.01458604435240
H         3.49819816974309    1.57438196179528   -4.32831620156892
H         3.29663543085526    3.36003390346347   -2.28876088814956
H         4.80268533555799    2.96167207717997   -3.07092154587102
H         5.40019856761914    2.49927772966279   -0.76638434721246
H         5.35105801615454   -0.34143182015009   -1.20425372024164
H         6.11606828510485    0.79933461084547   -2.41967332440777
H         0.41684209430962   -0.20058896117059   -1.04915489712236
