33
 energy: -44.339174096421 gnorm: 0.121551515454 xtb: 6.4.1 (79825abcba525fcdf90b791dcacef51065a7a4e7)
C        -0.09362196723630    1.80396513638436    0.56325998937872
C         1.27170469787085    1.34431894323165    0.12117156938688
N         2.33773784300025    2.07084954451349   -0.02689207214230
C         3.49695701247377    1.23154682456872   -0.43835777424180
C         3.79575809367987    0.29166725951341    0.76467369588423
N         3.31803828421788   -1.00717837079334    0.14342917385957
C         2.26961922919418   -0.86943855633706   -0.61393978796736
C         2.20534564849981   -1.60725271026398   -1.95536581057508
C         3.45854569761096   -1.08406636503363   -2.77237133502201
N         4.20384777563881    0.20103412579364   -2.90216947337696
C         3.51891957680018    1.41161303936640   -3.37668848721530
C         4.08677310755643    2.54922603931815   -2.49693085586859
C         4.63417234484212    1.89117458806355   -1.22563928005298
C         5.23544249041007    0.64014958660450   -1.93977174308362
N         1.22710700073248    0.03207399676699   -0.34734623201273
H         0.09502436901969    2.74222392580181    1.07373419555524
H        -0.60722242856316    1.03837239863303    1.14799912886936
H        -0.72428366408990    2.11740587005953   -0.28781551983108
H         3.11440822573209    0.57724622347985   -1.18430860146073
H         3.17335967969381    0.55304384603724    1.63067216132836
H         4.84592277114160    0.36740521467302    1.06559358557498
H         1.25942598031889   -1.39892716109257   -2.47041216173077
H         2.34661744136389   -2.68868116797053   -1.85844762073759
H         3.14771802685702   -1.46541326230727   -3.75735530292029
H         4.15515682881774   -1.80706756841515   -2.32903980638258
H         2.43132610029009    1.32633017639118   -3.27111977945296
H         3.80259275567655    1.55448927544457   -4.42523643963955
H         3.41965610250754    3.37934289718584   -2.24713739647673
H         4.96708454720160    2.88758626930963   -3.05905366260440
H         5.29905239818555    2.54319768988629   -0.65257818791991
H         5.50915694294767   -0.16474708491424   -1.25276272081122
H         6.08222513057592    0.97975126935252   -2.54759375809184
H         0.38385012726001   -0.42409247961421   -0.69594512370129
