33
 energy: -44.339574319894 gnorm: 0.134518866787 xtb: 6.4.1 (79825abcba525fcdf90b791dcacef51065a7a4e7)
C        -0.07575917127680    1.82596022767323    0.51361408129023
C         1.21849529968088    1.20230523365304    0.05886852438471
N         2.36508470415974    1.60743112649801    0.51428261137005
C         3.40373714530143    0.74828882439568   -0.11864534032302
C         3.26288473810891   -0.63450832308618    0.57990534833314
N         2.88976599417129   -1.45054634589113   -0.64321578606842
C         2.04522916742086   -0.75419334930100   -1.34579146221259
C         2.14391349011888   -0.87652975003251   -2.87000267306032
C         3.55677453478116   -0.41739322121279   -3.42204403801956
N         4.38439770098908    0.62886177151889   -2.75556341352117
C         4.03230443634386    2.05478342367501   -2.80629821665075
C         4.42414134200222    2.53912989974545   -1.39121277875304
C         4.76534650814631    1.32902729452132   -0.51480497583990
C         5.25883550885497    0.32547787980112   -1.60380989001153
N         1.09822745726819    0.16161112136386   -0.86090107036191
H        -0.78760927939160    1.14491900358517    0.96743473146467
H        -0.58042236514640    2.22837279106904   -0.36684984753451
H         0.22286535514758    2.66391189261887    1.16857148245106
H         3.04079959699163    0.61561057207035   -1.10938663480883
H         2.58493053164177   -0.56958646119873    1.44119165298654
H         4.21527401630909   -1.05048364714484    0.92494747807945
H         1.38635015011130   -0.28067435555687   -3.39392102505403
H         2.03775291269909   -1.93916515206748   -3.11161043102756
H         3.62118566465566   -0.06187548272681   -4.46208781483993
H         4.22682880788438   -1.28644337843862   -3.43992546290981
H         2.99416254289311    2.23573812181671   -3.10761913627644
H         4.65657714333362    2.67813093727985   -3.45595840907503
H         3.53932622940955    3.07042550063128   -1.02877233546258
H         5.26066733090440    3.24116523301695   -1.50429941321115
H         5.44520597482208    1.74180116843329    0.23553325939974
H         5.13592344137925   -0.67469135791877   -1.18035531935481
H         6.33092720481923    0.40712099551941   -1.81775273828869
H         0.12402334953164   -0.04088254606011   -1.08587634356748
