33
 energy: -44.340862738824 gnorm: 0.130466840219 xtb: 6.4.1 (79825abcba525fcdf90b791dcacef51065a7a4e7)
C        -0.09085613788888    1.91431572036292    0.48635120664232
C         1.11511233727039    1.14166168754940    0.01786482084770
N         2.27115628916298    1.57666008542733    0.41853304326131
C         3.38335286066552    0.78538909332481   -0.17680818251368
C         3.36648231186823   -0.61652021800682    0.49721413190106
N         2.88901424287557   -1.52132198610040   -0.62283897772549
C         1.99718931487651   -0.84364122188178   -1.28401945050321
C         2.09437936670362   -0.83318698847566   -2.81319224034392
C         3.54474818360689   -0.45783307394065   -3.33017588903490
N         4.40696151060617    0.62680523935445   -2.77885570328550
C         4.03609628073026    2.04633416186165   -2.69404493224872
C         4.56131351089129    2.58923835563415   -1.34497252352960
C         4.77881708104719    1.33360150156296   -0.49354536645879
C         5.28521875479826    0.37596542428614   -1.61740701811487
N         1.00900511329336    0.05108200424685   -0.84402955622501
H        -0.86611871303201    1.19704350818864    0.73331157644648
H        -0.50332281056409    2.57310614692415   -0.28026731425957
H         0.23464339118311    2.62799691648485    1.26418023975029
H         3.02400351501767    0.68556616058730   -1.17269920159879
H         2.65285216088461   -0.70015367670677    1.32750824079960
H         4.41603091811023   -0.85375898196849    0.70043906087089
H         1.42268159731795   -0.21063501625476   -3.41708581974803
H         1.97078064937850   -1.84354681415871   -3.21659620310861
H         3.46856330449471   -0.38033644529419   -4.42581399132562
H         4.27299956147043   -1.26575975051792   -3.18373453682604
H         2.94205611825513    2.10674157761270   -2.72058848316574
H         4.47208608129908    2.67972304656121   -3.47447322241540
H         3.79083509668856    3.28358794527227   -0.99744190114084
H         5.44245958986376    3.20066489514642   -1.57982800980757
H         5.51198275564373    1.56744589109323    0.28323228944490
H         5.22684389619279   -0.68215155467036   -1.34956286585864
H         6.34852678017717    0.60020695501615   -1.76200827827508
H         0.08387145320542    0.00829657866717   -1.27180090381863
