33
 energy: -44.343262354478 gnorm: 0.132801584520 xtb: 6.4.1 (79825abcba525fcdf90b791dcacef51065a7a4e7)
C        -0.02995726482533    1.94847181522187    0.40085294913283
C         1.31799242256825    1.37842888917557    0.04180364448953
N         2.37752870612532    2.09890517508458    0.25273731139500
C         3.52494705518754    1.31206609606746   -0.27814644344919
C         3.89410295837627    0.23701270011809    0.78389146206739
N         3.40279160272027   -1.00577852778699    0.06608643263670
C         2.31960330574539   -0.82203494451913   -0.63012037316316
C         2.30662854173537   -1.51236030850806   -1.99804111343350
C         3.65043587522652   -1.29619620460342   -2.80994461171878
N         4.11438212946660    0.12097091697713   -2.79589943448965
C         3.35516916137574    1.29249365087523   -3.25516667761425
C         3.83270658667585    2.49697885869287   -2.41150332524583
C         4.58150289526212    1.92842909893147   -1.20116652580237
C         5.15696342584980    0.65386509282739   -1.89464060073885
N         1.26906286917238    0.10220076773356   -0.51706338772960
H         0.05531126026389    2.93522038833823    0.84307171415419
H        -0.62495815981548    1.35452825349884    1.09730288613501
H        -0.58309788389311    1.84995843106553   -0.55027236811596
H         3.05831238418612    0.79893206770066   -1.08427363161342
H         3.28782544327908    0.24591092639027    1.69931444913878
H         4.97373609285408    0.08797346466889    0.89026097162078
H         1.38493959387966   -1.23156026289707   -2.52251906821107
H         2.11903906046560   -2.57424535833455   -1.80817615969480
H         3.38045593017760   -1.61930869352856   -3.82726553711643
H         4.45448460492174   -1.94453606390466   -2.43886279593275
H         2.27917578234176    1.09501796952857   -3.18794246431225
H         3.55401830051745    1.44979062679130   -4.32102482147413
H         3.06334505309141    3.22807553602564   -2.14670840729824
H         4.58030438645576    3.07631490241806   -2.96907413023190
H         5.38332684132510    2.51615648905197   -0.74591549530750
H         5.47782734120929   -0.17918606801652   -1.26390153793358
H         6.03519566474775    0.92000879664597   -2.49438505453767
H         0.46056123146393   -0.00272553440432   -1.13025729198021
