33
 energy: -44.345423927447 gnorm: 0.123384689847 xtb: 6.4.1 (79825abcba525fcdf90b791dcacef51065a7a4e7)
C        -0.03650123682854    1.85142066738317    0.46809565060421
C         1.26192834608331    1.17381095142959    0.11346994621787
N         2.39076658923966    1.62850922289603    0.56642680854885
C         3.44231248871074    0.76947319647831   -0.04498998002791
C         3.28546172133348   -0.68295789812553    0.48959597430861
N         2.85435696607030   -1.40256443969811   -0.77431702090802
C         1.92822428913689   -0.76229482336631   -1.42554324802793
C         2.15478730616491   -0.72616308104536   -2.94056413436276
C         3.67033867715310   -0.45264042670907   -3.31475893411443
N         4.54407497541095    0.62395565268023   -2.76582195720066
C         3.91843537158986    1.95371889950621   -2.75576979154225
C         4.43220042967629    2.55350216111754   -1.42652189524170
C         4.77167604470585    1.38317345909359   -0.49703443137879
C         5.29042261329568    0.32934429690701   -1.52510087544604
N         1.06919408630988    0.19082398542348   -0.85610459612581
H        -0.52041151949427    1.09609530664331    1.07786228839959
H        -0.70320092337690    2.05782017786612   -0.37139723465196
H         0.21688855524289    2.70548429304540    1.12130138425555
H         3.04760320251493    0.65788226238670   -1.02613601196681
H         2.55035101462239   -0.90361499443952    1.27481794227425
H         4.22189438314695   -1.09033314677384    0.88491122201934
H         1.41270202470512   -0.05106871354888   -3.38440344319724
H         1.92583032316693   -1.71363414679458   -3.35446987811206
H         3.60098836429678   -0.37240101054482   -4.41065349425718
H         4.11463280275568   -1.38635039419906   -2.94688792357741
H         2.83541126775180    1.80185592501153   -2.68314801404202
H         4.11208842633325    2.55519181906653   -3.65079254141714
H         3.61824162518773    3.14450408888139   -0.99672699266238
H         5.22626745653100    3.29766578554401   -1.57176644778940
H         5.48381702649007    1.75747925311244    0.24347149084757
H         5.04940585824657   -0.68075848634144   -1.18398074088810
H         6.34610698366138    0.40683650975523   -1.81030819214248
H         0.24236748941276    0.36955249999578   -1.42628447113288
