33
 energy: -44.337669159261 gnorm: 0.130102115187 xtb: 6.4.1 (79825abcba525fcdf90b791dcacef51065a7a4e7)
C        -0.03520308093609    1.85119370718925    0.65553792033540
C         1.29002472772397    1.41629653299268    0.08503865954261
N         2.37131197754118    2.13532696217337    0.08809584229225
C         3.49006494998344    1.28623340142447   -0.40683250680298
C         3.69633894522749    0.18902813983104    0.67646433426019
N         3.24999223232166   -1.11423309233476    0.04129055493184
C         2.19022144381035   -0.81369600195344   -0.65032050873025
C         2.25082198240280   -1.51934858012074   -2.00910916559594
C         3.66243385983824   -1.19701957122304   -2.65346021143589
N         4.22672848039712    0.16452053677240   -2.88058605291337
C         3.48137296463488    1.35350269819718   -3.31712106401021
C         4.02423932541451    2.56773965873496   -2.52875618844374
C         4.59776253057516    1.86632285852241   -1.29265525891851
C         5.31331507848469    0.69022471267085   -2.02842167312786
N         1.16564126496600    0.09562430479430   -0.34372503674130
H        -0.15350676427965    2.92730991349793    0.72246366558786
H        -0.23208412902823    1.38977643607143    1.62516129674579
H        -0.81166912695181    1.52337962192854   -0.05856795453106
H         2.93272255684367    0.73537969188119   -1.12573802153179
H         3.09911580513385    0.36443385228165    1.58101295482984
H         4.74528262645174    0.08766872456298    0.97408539264720
H         1.42431590719274   -1.21004328244471   -2.66076416887277
H         2.07414342637964   -2.58265310415656   -1.81673830744117
H         3.64014251923533   -1.64495531452157   -3.65898961608857
H         4.37839193053623   -1.82431265780501   -2.10715620196984
H         2.39493485377219    1.33754785855984   -3.17333246224221
H         3.71004394487313    1.41471063007243   -4.38684068783435
H         3.34295562871990    3.38946753709214   -2.28969200079960
H         4.86596063881408    3.02262446568456   -3.06727542293523
H         5.32697831640952    2.38386045316105   -0.66337169594501
H         5.51575927851664   -0.21372848272685   -1.44821083166385
H         6.19405573645284    0.93327467567649   -2.63426022572221
H         0.26380006090670   -0.12481295522092   -0.76655012472926
