33
 energy: -44.340256008460 gnorm: 0.122751637422 xtb: 6.4.1 (79825abcba525fcdf90b791dcacef51065a7a4e7)
C        -0.09036583952174    1.89167317758359    0.35575094116319
C         1.21140070347531    1.20704700302637    0.02784156642329
N         2.38231613507719    1.66972325434557    0.34577861471481
C         3.41460328872060    0.72993848715165   -0.17259382693054
C         3.40361462476611   -0.67614038374540    0.49280970317366
N         2.98179490982072   -1.46423369864887   -0.73280769784370
C         2.01252895958572   -0.82107830980807   -1.31473311219077
C         2.03642382508522   -0.78889505115962   -2.84650263400561
C         3.51132455136601   -0.41056259399881   -3.28612150850454
N         4.37173197218989    0.67613489906614   -2.73603636597740
C         3.86747581057387    2.05105056658983   -2.61303687008586
C         4.61504991187290    2.59267041179613   -1.37272426009932
C         4.78019953034821    1.34168785194743   -0.50288050964209
C         5.31458352278042    0.40475544981666   -1.63122706340568
N         1.08186716892669    0.00241734681375   -0.66177654346481
H        -0.84266841125383    1.11083160770023    0.32697257723649
H        -0.31594578526522    2.64365175304239   -0.40285267473690
H        -0.05282539023849    2.42462952819129    1.32263099070168
H         3.09804033899928    0.52314182077282   -1.16653473442034
H         2.59975197308746   -0.86586805732323    1.21631443542634
H         4.31774328526770   -1.08023154599158    0.94026248876234
H         1.21152309164603   -0.14537722937816   -3.17644186707101
H         1.89522051237927   -1.76070379285667   -3.33074199508539
H         3.49800430800300   -0.37095092663597   -4.38634248675485
H         3.95429039268174   -1.39009481624978   -3.06512706633346
H         2.78331503526460    2.20834050656953   -2.64669361754963
H         4.17873547438255    2.69664338124516   -3.44168893298228
H         4.06461586753781    3.41203790898709   -0.90134846732174
H         5.62682433383164    2.89415294644773   -1.67411889408514
H         5.35976435768051    1.59975324860669    0.38768419476342
H         5.17859517333206   -0.64451896104782   -1.35683676692679
H         6.34335891922666    0.63598194503663   -1.93118245577560
H         0.15255298193843   -0.08619180829461   -1.07313376537863
