33
 energy: -44.339205206425 gnorm: 0.132532040378 xtb: 6.4.1 (79825abcba525fcdf90b791dcacef51065a7a4e7)
C        -0.03981829835945    1.97824375040034    0.47579782500723
C         1.26857277780255    1.34132257593086    0.08429059132376
N         2.33837001077466    2.07569692412829    0.03505220385798
C         3.46372441097935    1.22752339678592   -0.44630141075021
C         3.80735685438328    0.14752981885412    0.61928341056628
N         3.27873128371606   -1.14994988368786    0.03768012749049
C         2.15497714986977   -0.92673793248242   -0.57804351054465
C         2.25252962172019   -1.41801550522424   -2.02616452150591
C         3.70289749738337   -1.21125298974755   -2.63065988174202
N         4.21436899826079    0.17124150918679   -2.85629653594897
C         3.39506569843618    1.31639606556725   -3.27719960012196
C         3.90988436719637    2.47448597496238   -2.39154506080993
C         4.64053360926273    1.87197691569824   -1.18655774448095
C         5.30128359050627    0.73755572911827   -2.03099397567897
N         1.14714975766254   -0.00748795448721   -0.24654363171720
H         0.21801226261335    2.96580351632264    0.84288095360762
H        -0.33813895699104    1.38045975236971    1.33921928796447
H        -0.74926225207795    1.84042819519297   -0.35966907739637
H         2.98951028716330    0.73688392703389   -1.26195413288306
H         3.27977351014981    0.40604156081295    1.54690313007900
H         4.86317631002417   -0.01372962999792    0.86089371187579
H         1.41638802701348   -0.94342541447617   -2.55443319234963
H         2.09048253401211   -2.49905539662311   -2.08886909957323
H         3.69412603008753   -1.75527502152820   -3.58784105709645
H         4.41396095555097   -1.62022254671958   -1.90150056367396
H         2.31407409337355    1.17514031334094   -3.16414451690531
H         3.63986763443557    1.49831837925550   -4.32948909753142
H         3.14871327887279    3.22177733303388   -2.14924344929937
H         4.62503466083062    3.05227560937932   -2.99165931750580
H         5.29612833512471    2.56314396277212   -0.64982476245265
H         5.96851263507813   -0.01517106344704   -1.60324705739298
H         6.02835143600084    1.23643814525503   -2.68238205426829
H         0.24881635084941   -0.19474307967131   -0.69221594301916
