33
 energy: -44.344598663148 gnorm: 0.132546593866 xtb: 6.4.1 (79825abcba525fcdf90b791dcacef51065a7a4e7)
C        -0.04923726595962    1.85526114283542    0.47056772642282
C         1.28926081288619    1.31080637625024    0.04298659778094
N         2.39458102909268    1.81373362226964    0.50290795139447
C         3.42144341174705    0.89744248692382   -0.06585068540998
C         3.41127631014797   -0.50529481685674    0.60658154242447
N         2.98529137494096   -1.41776609256466   -0.52792009583697
C         1.99384526804126   -0.89964779173041   -1.19150926791837
C         2.08474351596795   -1.08577863798745   -2.70973765941058
C         3.47290170247111   -0.60186301292054   -3.30183130517860
N         4.32694269861722    0.53103901206419   -2.84253507875008
C         3.89548742335163    1.93583054195350   -2.85679530339748
C         4.41722329769784    2.60628111978908   -1.56494308033485
C         4.73786478188178    1.41590872215347   -0.65441438176675
C         5.24817621764351    0.37339066421710   -1.69811590180919
N         1.19777889365047    0.17058220289769   -0.75388515827634
H        -0.78293886144489    1.06326293165106    0.36606070559319
H        -0.36642567756123    2.75527349875011   -0.05972163777618
H        -0.02183973510749    2.19042447222846    1.52281471028228
H         3.07850423318869    0.75648716293228   -1.06255516192011
H         2.70602144911105   -0.55209455750657    1.44686495840258
H         4.39601524486088   -0.90399783986516    0.87202458425029
H         1.23183452051972   -0.60637170761293   -3.20587428867604
H         2.23586540746403   -2.16265154802756   -2.83758638324489
H         3.20506062431984   -0.33907073857311   -4.33693231429763
H         4.05812345663480   -1.52923233141251   -3.34702310982249
H         2.82193175336460    2.08314576969166   -3.02127612102575
H         4.33540584821979    2.38701399289406   -3.75303309372519
H         3.63204955258359    3.27647263803184   -1.20316774675698
H         5.28329918039338    3.26343269448706   -1.71818243170069
H         5.49925566241998    1.70338038331502    0.07582024275314
H         5.29382660372527   -0.61115769938746   -1.22552705689775
H         6.25881200379109    0.71055352995723   -1.95648435565126
H         0.34382943415065    0.23260410171488   -1.30851550153736
