33
 energy: -44.345229944994 gnorm: 0.122414040514 xtb: 6.4.1 (79825abcba525fcdf90b791dcacef51065a7a4e7)
C        -0.07001644116843    1.94841364434458    0.42159578543677
C         1.26681142145986    1.39682283342401   -0.00204623141255
N         2.33344368707347    2.12752674597558    0.11863366030798
C         3.50474123783403    1.33355490025315   -0.34525525064759
C         3.84646149809046    0.18649687087004    0.64843763119236
N         3.35537911182828   -1.08997429863320   -0.00777909908733
C         2.26657865668467   -0.81581097131067   -0.66436920851554
C         2.20641340768705   -1.58333042966992   -1.98921585633849
C         3.52842798502497   -1.21342686459438   -2.78116357066191
N         4.17145045844290    0.13200682908365   -2.79283937538989
C         3.45873711865611    1.32853708953443   -3.26204219333988
C         4.00627528087233    2.48666998629936   -2.39629129318577
C         4.67827466517127    1.90626707873389   -1.14712788965806
C         5.20483160901888    0.61892179707463   -1.85568588608019
N         1.20570191726479    0.04858403057735   -0.35133472923870
H        -0.12363442545367    3.02319217509840    0.28566516813622
H        -0.18461708712125    1.72385478617309    1.48379988713568
H        -0.83712537897699    1.42968470091776   -0.18071058161325
H         3.01397167237401    0.84844340992574   -1.15439526937813
H         3.38890147277205    0.35039276611618    1.63303288257125
H         4.93249249234379    0.23257406769459    0.78090817957242
H         1.37753570766789   -1.34503013112451   -2.66716204548654
H         2.23713436931269   -2.65457784714421   -1.76488670653649
H         3.38305222334821   -1.27529595598913   -3.87078314830638
H         4.32759469807460   -1.86278665796278   -2.40142013216409
H         2.36276975568561    1.32158869428981   -3.25283617833477
H         3.76766099197730    1.58943206789514   -4.28029400661322
H         3.16359607758291    3.08420211585131   -2.03659282436997
H         4.71815036333553    3.07781585738810   -2.98722136698541
H         5.47092258796359    2.49896328159461   -0.68234932939081
H         5.41820192587462   -0.20931394398205   -1.17505506023617
H         6.00636490435256    0.90176370216530   -2.54804604013283
H         0.29696919667370   -0.31268919439243   -0.64181312678509
