33
 energy: -44.344007969113 gnorm: 0.121869032614 xtb: 6.4.1 (79825abcba525fcdf90b791dcacef51065a7a4e7)
C        -0.02952043796108    1.65584912960875    0.73209814726217
C         1.18771049072861    1.07806252435433    0.05730543127669
N         2.30857240552151    1.67427452645992    0.33006181720509
C         3.42268533058276    0.85679482108781   -0.22491699494746
C         3.26479862077413   -0.49611905364528    0.52650580758398
N         2.75654895094429   -1.43590965620874   -0.55035854904734
C         1.96801880874864   -0.76132054527169   -1.33452196297219
C         2.09308120482334   -0.84572889338252   -2.85936923764714
C         3.60240800552785   -0.54655750854926   -3.23905519873350
N         4.44460416680365    0.57790382428075   -2.73895685624019
C         4.04905622597056    1.98821825480209   -2.85875361704699
C         4.51120624852148    2.62373411563128   -1.52716381525068
C         4.78913032986026    1.45575532028470   -0.57456545201086
C         5.34854514879887    0.40392587777387   -1.58317062663179
N         0.94601140217978    0.10099158669559   -0.90726629868234
H        -0.12584047291561    2.61740920196879    0.23952775166530
H         0.25609263424563    1.80013294582603    1.77586291655514
H        -1.01984503296107    1.17813302595815    0.62554625613877
H         3.08542374493948    0.65974886970738   -1.21401911455652
H         2.63704411207701   -0.46403583965564    1.42680897282139
H         4.21418908368537   -0.92610962047985    0.86251284848099
H         1.42187147265202   -0.07380868507891   -3.25566835457651
H         1.81832992924423   -1.79467725793952   -3.33143606868465
H         3.56299209716886   -0.44823634575693   -4.33496215057177
H         4.10731618538644   -1.49275231125674   -3.00598060150427
H         2.97720895246192    2.12634008516935   -3.04135500711496
H         4.53458343247808    2.37573886370795   -3.76121026742858
H         3.89111279219799    3.42689055762999   -1.11855678962025
H         5.43796790017694    3.19969120566685   -1.64883629571136
H         5.39740150020019    1.62037143547369    0.31902636831630
H         5.23211089130967   -0.63213890771394   -1.25488344326241
H         6.39932898912677    0.59280736273831   -1.83215826699440
H         0.09992832155048    0.25229425865470   -1.45675889348837
