33
 energy: -44.338700853360 gnorm: 0.137691715963 xtb: 6.4.1 (79825abcba525fcdf90b791dcacef51065a7a4e7)
C        -0.10725060064521    1.81493451365127    0.43992897031788
C         1.18717669778043    1.10497411725277    0.13785626058743
N         2.30346380645641    1.66794566114381    0.48880123843589
C         3.41640522071145    0.83424000753232   -0.04394490550656
C         3.32048983949837   -0.61009127477767    0.52583381001446
N         2.94223500489673   -1.39921421737254   -0.71326635460429
C         2.02406117566837   -0.75891267374206   -1.37563580500414
C         2.11026121705690   -0.77526947624511   -2.90541573422249
C         3.60053833364404   -0.49915597880441   -3.36863039429332
N         4.33556155458097    0.56899658145865   -2.63201854269010
C         3.96128084234837    1.98633736201944   -2.73620736014934
C         4.55483134635545    2.54219185736252   -1.42117198238514
C         4.78943719241059    1.34517473775494   -0.49328727972170
C         5.28958722059797    0.29760286271366   -1.53684735726485
N         1.09285227154211    0.17662513119956   -0.89788297628967
H        -0.84906308797101    1.12142824490204    0.82106438004067
H        -0.50024811361226    2.27592094353149   -0.46830118072952
H         0.10958202667698    2.52211393687392    1.26041033731270
H         2.97527492160148    0.71543411456939   -1.00424939461015
H         2.65995854336117   -0.85354328048891    1.36849647943166
H         4.33452952838838   -0.94834383299961    0.76341241156986
H         1.60319116163635    0.13717557225491   -3.24269946461530
H         1.56135811036905   -1.63114686651400   -3.31163937040455
H         3.50225058349132   -0.28053990982174   -4.44323695015890
H         4.16478143650690   -1.43946557986185   -3.32404087264101
H         2.88236228860911    2.14107355719741   -2.85139831105154
H         4.48046048549816    2.39940932422585   -3.60807945819161
H         3.74235407937273    3.06771685246620   -0.91103470309038
H         5.35076723263269    3.27040854117674   -1.62514366840831
H         5.53540722387874    1.63169429537738    0.25305974456144
H         5.37909220013321   -0.75355514286667   -1.25081351959584
H         6.24765403626698    0.70860842226278   -1.87596408516861
H         0.16388925006531   -0.01446366053156   -1.27365416504254
