33
 energy: -44.340310336426 gnorm: 0.130223306085 xtb: 6.4.1 (79825abcba525fcdf90b791dcacef51065a7a4e7)
C        -0.07238153356556    1.91745170810735    0.44624071852372
C         1.15801446739292    1.17877418714322   -0.01344926839673
N         2.33532019005496    1.59970192775059    0.33721765766297
C         3.41164471450224    0.71530929314084   -0.18899270372028
C         3.42235284985861   -0.66483066909075    0.52866976411220
N         2.80905919171699   -1.47494739534656   -0.59771503731420
C         1.92454476359756   -0.84932490026017   -1.31743249887059
C         2.10032564797406   -0.91226697410915   -2.83830854521842
C         3.49671163290535   -0.40102850195859   -3.38646339400155
N         4.36362534821394    0.57164124259123   -2.66108059814033
C         4.01715253748317    1.99960605468261   -2.63520923599101
C         4.55236928427381    2.62624973586047   -1.32698326488197
C         4.76879723254034    1.35835289994746   -0.49364271929933
C         5.38206037382967    0.44190453323936   -1.59845276155006
N         0.97898874237555    0.07485615186219   -0.84579500730365
H        -0.88576909644603    1.24663566873828    0.70101005999684
H        -0.40925197482082    2.59825895631792   -0.33788767129466
H         0.25435200738339    2.44202394162831    1.36187053443470
H         3.06173804200315    0.59545382878640   -1.18603607070343
H         2.88233620279962   -0.57965830356776    1.48091896091912
H         4.34073172494066   -1.25160105550377    0.63551370834317
H         1.29473588100654   -0.35659664391858   -3.33398173465925
H         2.11392931135732   -1.93956929004107   -3.21686271174490
H         3.31475284665609    0.12626463902279   -4.33571870952006
H         4.20860556887428   -1.23615404646099   -3.36877173824472
H         2.92918868836657    2.13231475267765   -2.63446426908599
H         4.33026484686697    2.45242616111066   -3.58244285693130
H         3.80947247761753    3.29891481258876   -0.88862051668434
H         5.41032939819197    3.27495666013597   -1.54721425880849
H         5.32941599710087    1.43116565396193    0.44230788494914
H         5.42957103084150   -0.61548644385146   -1.32564016887106
H         6.36797083895298    0.78283218082066   -1.93544925341392
H         0.17209866011825    0.13414780790651   -1.46716775302685
