33
 energy: -44.336686322936 gnorm: 0.128490016134 xtb: 6.4.1 (79825abcba525fcdf90b791dcacef51065a7a4e7)
C        -0.03774660783650    1.87123127036835    0.44580188154566
C         1.19898433082974    1.06131549716110    0.15362600882304
N         2.35244777112309    1.59967796560615    0.41030514360271
C         3.45641850460056    0.81940793198023   -0.21415418426250
C         3.36623143302394   -0.58462118959201    0.44955427347407
N         2.86343363418883   -1.39502441965718   -0.73010751297117
C         1.92399541838070   -0.73228312232084   -1.33837746792763
C         2.11828678022731   -0.78615532172653   -2.85734858009799
C         3.62752850236467   -0.49838233942600   -3.24607531132245
N         4.42868075156986    0.66794269489379   -2.77528128611281
C         3.83969560890854    2.01205981214307   -2.69627547083123
C         4.54333551016076    2.59060950865017   -1.44696942272814
C         4.84070407790523    1.38557878664123   -0.54789611838814
C         5.34642687220116    0.40093570027606   -1.64848549049706
N         0.91098522957195    0.04962060333522   -0.76125904377034
H        -0.36903531938618    2.31322254301766   -0.48768213912750
H         0.07649266615536    2.72922644254961    1.11110723179459
H        -0.82548636282553    1.31833778246293    0.98809669235184
H         3.12644446085020    0.72448530625958   -1.22063434426235
H         2.68638500251860   -0.55781884131030    1.31137868335902
H         4.28392992346332   -1.05113428754613    0.82282345121851
H         1.34686701870890   -0.20975226760392   -3.38280777481027
H         1.86660230616994   -1.79419743941960   -3.20281114150680
H         3.64811799752344   -0.51013667417321   -4.34683442145612
H         4.21246962820309   -1.38013378807336   -2.95470114032075
H         2.74881748577171    1.94253981412085   -2.61609205123701
H         4.19318298613402    2.56071507619423   -3.57625329823540
H         3.86982193666700    3.21634767484835   -0.85420717212621
H         5.48785406535656    3.07564801290628   -1.72632631462871
H         5.51760258435464    1.59730434547866    0.28431739089309
H         5.30127862364068   -0.64984740756531   -1.35086803704576
H         6.38874661236882    0.63204985659761   -1.89743036029122
H        -0.03264525291899   -0.33800214128383   -0.76011181409586
