33
 energy: -44.352913090288 gnorm: 0.118902320015 xtb: 6.4.1 (79825abcba525fcdf90b791dcacef51065a7a4e7)
C        -0.04232671565502    1.85847112097632    0.55253416488924
C         1.28921789745536    1.33747671181631    0.07673224979606
N         2.34798344428835    2.08308253794689   -0.01961965480713
C         3.48656926463962    1.22606240205728   -0.45166245149415
C         3.79324291232759    0.26333884669984    0.73115411420278
N         3.34869919894900   -1.04811390205059    0.11177254442481
C         2.28019023278038   -0.84348181638861   -0.60109267123790
C         2.22266123924075   -1.43901449437354   -2.01175061716120
C         3.62006505139576   -1.20888310428597   -2.72311161843674
N         4.23673774559175    0.14325052002472   -2.84662467378204
C         3.52788538564694    1.34067965390258   -3.31936988924672
C         3.89001464443269    2.56389466045955   -2.44575561255345
C         4.60348176399459    1.86806013390741   -1.28143654597600
C         5.31653619844913    0.67285503906409   -1.98826939118585
N         1.19833263495083   -0.00345515915765   -0.29357339918151
H         0.05023397014086    2.83614314771187    1.01306737195287
H        -0.54785515966030    1.21403713796066    1.27432593893757
H        -0.67547550506372    1.98962917116835   -0.34313819010906
H         3.06456429740895    0.62122381787885   -1.21780707312422
H         3.19388477544229    0.45342128673644    1.63131484380586
H         4.83935469799538    0.02156884143544    0.94640343225382
H         1.40991010449390   -0.93279631995959   -2.54711503571393
H         1.88962050691473   -2.48198758317886   -2.02312442043595
H         3.46966051889030   -1.67516866483966   -3.70910804953412
H         4.39548920029548   -1.73667849597164   -2.15329580395747
H         2.44728196126323    1.17225302274537   -3.24721590086887
H         3.68614402100666    1.48071983833660   -4.39439539987174
H         3.05014350536591    3.18131177102767   -2.11417085755283
H         4.56452356678223    3.21435972747890   -3.01790142615707
H         5.28890798309828    2.44979080899597   -0.65903880587406
H         5.64130978773738   -0.13387708441682   -1.32610245849983
H         6.16053864309618    1.03957459218450   -2.58408344424063
H         0.29112610206627   -0.27856488045136   -0.67037857772808
