33
 energy: -44.348006679214 gnorm: 0.126329220377 xtb: 6.4.1 (79825abcba525fcdf90b791dcacef51065a7a4e7)
C        -0.05734654277591    1.92672076366204    0.41993335076578
C         1.31561548459798    1.37251161387840    0.13946732822077
N         2.35934666505985    2.14049846425401    0.22323871323197
C         3.46731701329982    1.32415706506978   -0.34554120584132
C         3.86792199441458    0.25785083440557    0.71391482190568
N         3.37151675567630   -1.01115028553444    0.04729728333944
C         2.30150503866582   -0.83377966880554   -0.67060041498010
C         2.19935543102450   -1.59650763388821   -1.99564233765244
C         3.53042085438357   -1.22385728163553   -2.77096737023316
N         4.19666807870374    0.10947272818772   -2.81735433670712
C         3.50136762133268    1.29720666186023   -3.33275866210282
C         3.88514758889917    2.51257555107513   -2.45743822833960
C         4.57530728337502    1.89976549030436   -1.23391735050836
C         5.21371450863204    0.63067634868216   -1.88077396931540
N         1.27481336816467    0.05604314170255   -0.31740313902054
H         0.01428037205917    2.84607978237273    0.99102834103163
H        -0.66264217040598    1.22100185900315    0.99213573477910
H        -0.58812048304496    1.90683942472509   -0.54867005293545
H         3.00724597045568    0.85335236843031   -1.18074960154778
H         3.49339197836545    0.38653652233630    1.73803303145798
H         4.95649593797252    0.15490316768134    0.77344147697054
H         1.26752366480522   -1.21794393685392   -2.43360968508987
H         2.06697755835918   -2.68303045325342   -2.02361762432458
H         3.36650589032654   -1.45988963155316   -3.83381887859531
H         4.31931586748716   -1.89700863190650   -2.41172849730183
H         2.42006811272038    1.25892132138862   -3.50769606011984
H         3.90303728698859    1.60987573892479   -4.30293206366101
H         3.06267607029208    3.16200578538002   -2.14388306163737
H         4.64567065939874    3.09688109899975   -2.99186278920517
H         5.36212431879023    2.50796239218325   -0.77936910203646
H         5.41155854977719   -0.14816442158872   -1.13981213305355
H         6.12269755629184    0.86532212875913   -2.44690904202046
H         0.36550335308683   -0.23262397756444   -0.67867559424577
