33
 energy: -44.342537151582 gnorm: 0.124962514238 xtb: 6.4.1 (79825abcba525fcdf90b791dcacef51065a7a4e7)
C        -0.12561060067964    1.89166019796513    0.54954942384000
C         1.22839711667003    1.39605483874079    0.11151728626250
N         2.24739088368007    2.20086008140927    0.09983488283309
C         3.40414262865631    1.37361144812720   -0.34187461106469
C         3.85506244227446    0.31865432458974    0.70868581232645
N         3.41572717490119   -0.98266555696582    0.06470440933861
C         2.29708601683539   -0.87048870372059   -0.58937575512612
C         2.38192910841192   -1.55766439424402   -1.95631241793848
C         3.65064028445431   -1.26319820307256   -2.85930410073724
N         4.16934595085909    0.13205557552437   -2.94884392212600
C         3.41659669016169    1.33177381773107   -3.34106955176287
C         3.99394777894965    2.47748112543871   -2.47815880676506
C         4.57630666071600    1.82079042460850   -1.22178490744390
C         5.11909656546954    0.51558893468343   -1.88390477349823
N         1.29267098556431    0.07530151906835   -0.33003027848493
H         0.08600554121468    2.46295715475351    1.44695641865496
H        -0.88298725388462    1.11065092626841    0.64033853900877
H        -0.44826371581976    2.53889116376101   -0.28549299912081
H         2.94258232858403    0.81342799492604   -1.11908248844274
H         3.48677624266200    0.47005722596293    1.73196157660261
H         4.93334053603702    0.29616134530414    0.89827825499802
H         1.45838136082830   -1.27344047595633   -2.47565107433563
H         2.39100422030429   -2.65225858278235   -1.98120375043544
H         3.43497500163889   -1.46742744293707   -3.91949824504857
H         4.49362328767100   -1.88759472024936   -2.53673736704158
H         2.33550837965924    1.28627428555662   -3.16655493565088
H         3.51106404956040    1.50355453623687   -4.41898615617913
H         3.27375967754605    3.26120659742592   -2.22589038431155
H         4.74545468444099    3.08566940508077   -2.99850706931536
H         5.29292679477278    2.51088390072294   -0.76810527049856
H         5.22615236177716   -0.32234297330929   -1.19024143154960
H         6.13764942146805    0.61255385113840   -2.27756151905135
H         0.39492360115527   -0.17630423740521   -0.74407785308122
