33
 energy: -44.342665148909 gnorm: 0.121142882400 xtb: 6.4.1 (79825abcba525fcdf90b791dcacef51065a7a4e7)
C        -0.04427697357481    1.90801580019471    0.44521403265406
C         1.32107099749691    1.34623875933579    0.14344395166325
N         2.41562250993713    2.03045775036896    0.28485678518767
C         3.54879432602705    1.26858829009916   -0.30928017007158
C         3.87993615119920    0.13978902292943    0.70860867735214
N         3.38436876793727   -1.07049253232886   -0.06002158281360
C         2.26139756273108   -0.85424234941691   -0.67964571129308
C         2.23380507739285   -1.46210105551601   -2.08594264159822
C         3.58598552313741   -1.21213609119998   -2.87388802049954
N         4.09731425184180    0.18645114470363   -2.79449834339683
C         3.43238195907617    1.41627907843836   -3.24747135164300
C         3.90918306080058    2.56308939230438   -2.32655806795097
C         4.65625033414402    1.82217176213379   -1.21220109467602
C         5.22867091426449    0.55275445192290   -1.91753001978120
N         1.23530543514121    0.03995358978083   -0.33587642113120
H        -0.71084301198467    1.06312980195598    0.58070676118020
H        -0.36732049239009    2.52277699513284   -0.39713334135730
H        -0.11037537958228    2.60749517558884    1.29766250252148
H         3.05337929101930    0.79094702263041   -1.12003183079609
H         3.24378098315387    0.38940124515652    1.56805686846261
H         4.86405289622835   -0.13358954135562    1.10346721027775
H         1.41643147666942   -0.99932485488639   -2.65266559005676
H         2.04681908469875   -2.54092650565099   -2.08274045154508
H         3.39368969430078   -1.37769607814002   -3.94526326826214
H         4.40320930375980   -1.92086288779205   -2.68843649983460
H         2.33853510225665    1.34781921547771   -3.25694717631685
H         3.80780504719089    1.68367189505856   -4.24140066944532
H         3.10758611554662    3.13385240869733   -1.84884708026212
H         4.50217828685221    3.31121995854448   -2.86884511398131
H         5.36947275791834    2.44287257878877   -0.66298083016906
H         5.31154000498284   -0.26816409131780   -1.20060246772611
H         6.04447323874027    0.83168798077790   -2.59464182902955
H         0.42489229880348   -0.03654888776681   -0.95074968259098
