33
 energy: -44.340361889655 gnorm: 0.110935843514 xtb: 6.4.1 (79825abcba525fcdf90b791dcacef51065a7a4e7)
C        -0.10524557311507    1.86148546270855    0.44711136265882
C         1.25138531421693    1.33248025454512    0.05911674485236
N         2.34402134245724    2.03311071999001    0.09732256681087
C         3.54646875877769    1.30546862804167   -0.39479464095246
C         3.87405365670379    0.29017699857152    0.73737647468246
N         3.37934913367260   -1.00105124080539    0.11355116625845
C         2.30646580695785   -0.83407103659449   -0.60255043501863
C         2.28351683225026   -1.51578353253331   -1.97465321894355
C         3.61656320104249   -1.15368138893947   -2.75157135481008
N         4.21530958842808    0.19282157083296   -2.98012900473937
C         3.32648057070093    1.33796371490987   -3.22184930895097
C         3.91074563538246    2.53029875595908   -2.42965870627372
C         4.66811435573330    1.87825694193250   -1.26772325020649
C         5.19988231934923    0.57777376706837   -1.94782681890712
N         1.21979874677352    0.04556989060766   -0.47599884508945
H         0.25525010503127    2.65577339408257    1.09182096260643
H        -0.76995227704201    1.17316608836166    0.97267674232903
H        -0.58326587638400    2.42565352202170   -0.37357114623881
H         3.06522291847852    0.67502934465857   -1.10320429602553
H         3.35373162064251    0.55996665044723    1.66588569355209
H         4.91416834183601    0.20576721884697    1.06929709466984
H         1.44997627426539   -1.07612775227783   -2.53621288006646
H         2.21513367261001   -2.59476282443908   -1.80154686170823
H         3.43364210434767   -1.57880279781260   -3.75059306814559
H         4.50365929891370   -1.64687885139690   -2.33401006342711
H         2.30458995948544    1.03372445885896   -2.96796833583029
H         3.29341705988858    1.59418592032251   -4.28655297240894
H         3.03039990103342    3.07810285329362   -2.08117925048076
H         4.61867119201559    3.13285917171197   -3.01376509693767
H         5.45443357393286    2.49948880550955   -0.83026275843479
H         5.42721290874958   -0.21986482767602   -1.23589063427084
H         6.14510564518448    0.64430590558618   -2.49913806238656
H         0.34199534128894   -0.37434095828354   -0.78231119380288
