33
 energy: -44.340613263070 gnorm: 0.142839604598 xtb: 6.4.1 (79825abcba525fcdf90b791dcacef51065a7a4e7)
C        -0.10959588698584    1.94524933937890    0.57269847118835
C         1.19617876050771    1.33593471405040    0.13165202554032
N         2.28207034568276    2.04568997884352    0.07435303991030
C         3.43336827364026    1.25988911020032   -0.44962429574073
C         3.86425234039051    0.33269340137204    0.72280372183233
N         3.45455274527170   -0.98546984457070    0.09371480901550
C         2.31318795899195   -0.86302575196205   -0.51788669753480
C         2.31046162197033   -1.41558789781608   -1.94707956573756
C         3.60070885521109   -1.16560098953560   -2.83280016464547
N         4.24147913675963    0.17385769974486   -2.97089402396519
C         3.51408884769771    1.35454226949926   -3.45739537731002
C         3.96425404680778    2.47505334958867   -2.49178640865493
C         4.60530495462761    1.81465585522085   -1.26631148039111
C         5.18873385994804    0.50653697784282   -1.88680341736586
N         1.23752779112088   -0.01453559831400   -0.21186638861556
H         0.01823389050431    2.87654199059646    1.11385875671488
H        -0.54639314996647    1.16328368006045    1.19685822866762
H        -0.80580226044504    1.97300825348442   -0.28452665988771
H         2.95361026486654    0.71396911356276   -1.22596127350162
H         3.21602278722208    0.44901043222946    1.60139330259451
H         4.93698604177714    0.38899901415668    0.93542300622572
H         1.40355297425415   -1.17945546470008   -2.51733782868880
H         2.33374570602669   -2.51015959788245   -1.93262195582479
H         3.23390004143022   -1.47695972788623   -3.82312321789687
H         4.42702762250425   -1.83244335765308   -2.55520477328699
H         2.42024126880280    1.33275256611980   -3.39181965249039
H         3.84597017899218    1.54775129076094   -4.48348599705472
H         3.19834099433644    3.19097498972642   -2.17974590770744
H         4.65538549077677    3.10030952923019   -3.07213971775682
H         5.26747112336713    2.44662114299045   -0.66818567854094
H         5.19797958865346   -0.30163246080450   -1.15091189498955
H         6.15768523323349    0.79843425927958   -2.30840389586604
H         0.33176395895008   -0.22532939290028   -0.63121000130839
