33
 energy: -44.339265713128 gnorm: 0.131096820065 xtb: 6.4.1 (79825abcba525fcdf90b791dcacef51065a7a4e7)
C        -0.06442076350439    1.81152788608031    0.63272163763342
C         1.26876394277321    1.38973058946888    0.07099280686912
N         2.29945579224014    2.17756356385983    0.01451504205719
C         3.42544850454988    1.30778959821359   -0.42497993198239
C         3.74442580871986    0.28704319668241    0.70474156894909
N         3.33500303524902   -1.03927227708812    0.09284189574755
C         2.28128333895755   -0.84383708665250   -0.64420790082000
C         2.24078376267743   -1.52673340858962   -2.01531583977858
C         3.56814923769814   -1.19632311290352   -2.81572965365489
N         4.24414417001103    0.13287726902003   -2.82368094942534
C         3.50737446456232    1.31945300654781   -3.28085122643814
C         4.03425150027660    2.54458611660773   -2.49851887167741
C         4.58989422535405    1.90825271643284   -1.21976913968732
C         5.22820458380733    0.62455283625499   -1.83722280187501
N         1.24995023067667    0.07301771200165   -0.38660736290364
H        -0.18801385871599    2.88496373833092    0.53805840350231
H         0.05473593898343    1.46597665467709    1.66142644138245
H        -0.80583000065896    1.30397541382730   -0.00993817095720
H         3.02616257661153    0.69328233636712   -1.19559466369338
H         3.23025057254678    0.56364717875583    1.63466893930245
H         4.82190681274809    0.24734379842841    0.89603589441026
H         1.44648566398662   -1.03954487992250   -2.59425813144823
H         1.99618720862707   -2.59367700526337   -2.04065830469360
H         3.35179725605114   -1.37606372834637   -3.88020973500471
H         4.30785260012072   -1.99423386396295   -2.67179212894812
H         2.42874500380935    1.28772603384796   -3.47276102909194
H         3.77271138701601    1.41051242742796   -4.33992695679844
H         3.21722098207156    3.16110565018649   -2.11264237733125
H         4.71270513753504    3.09925072697448   -3.15993081186813
H         5.32862812431922    2.44745991475911   -0.62049753585768
H         5.52432334627167   -0.12509312956545   -1.09891104207045
H         6.12910376234541    0.87417565259068   -2.40983686508040
H         0.36617142282247   -0.42882219366531   -0.47482823725906
