33
 energy: -44.341403714929 gnorm: 0.117255037301 xtb: 6.4.1 (79825abcba525fcdf90b791dcacef51065a7a4e7)
C        -0.12517123643844    1.73333135259485    0.57180009704835
C         1.18685681691418    1.18348927466057    0.07471885220152
N         2.27889354632451    1.65489038598661    0.59571116945466
C         3.38640479829529    0.87552220841001   -0.02358377965833
C         3.33720007989655   -0.61732911140279    0.41105887383671
N         2.89647186232583   -1.38955512391970   -0.81800034903716
C         1.93317725909648   -0.77745526018361   -1.44182707819453
C         2.07386129847302   -0.92662106419423   -2.96034022442897
C         3.56939809791983   -0.49917381380594   -3.26429894100040
N         4.38088814806620    0.62731808366048   -2.71995901935759
C         4.02876725610531    2.05409500206435   -2.73067128910245
C         4.54531707328565    2.54788741552773   -1.35956232026459
C         4.78402064892240    1.34061481242620   -0.44612191225604
C         5.24300508323918    0.34182929858575   -1.55442480844398
N         1.13576747060001    0.28631290169545   -0.99109027478820
H        -0.53612287089050    1.10213823259894    1.35232229713620
H        -0.89761712845143    1.76914619372540   -0.19883741404784
H         0.09642546384105    2.72243332784812    1.01098226670983
H         2.95535882519882    0.91543441364062   -0.99492402827563
H         2.58905708663478   -0.66130251315065    1.21355451429899
H         4.34553374593242   -0.91528529544110    0.71703306177495
H         1.42769750703357   -0.38728111433277   -3.66391756430772
H         1.94291270949145   -1.98740622750163   -3.19788112746642
H         3.57024974965600   -0.24463110392080   -4.33548520345949
H         4.13415324132655   -1.42398070761896   -3.09015965202529
H         2.95596244591189    2.17633989891911   -2.91888264996044
H         4.63848366653735    2.53272702424702   -3.50494139083833
H         3.95807793392887    3.24693344309829   -0.75705031453932
H         5.47214926642515    3.08481956055582   -1.60060979101843
H         5.55988732654045    1.51779574666294    0.30370236317847
H         5.00191861637618   -0.66123900661362   -1.19318950023388
H         6.30479182438453    0.44172023849873   -1.80829182785321
H         0.31441085204905    0.34271890615355   -1.59348787277821
