33
 energy: -44.355689201526 gnorm: 0.121102070277 xtb: 6.4.1 (79825abcba525fcdf90b791dcacef51065a7a4e7)
C         0.00215824682526    1.89676465597182    0.64635811479546
C         1.28751213106361    1.35103889459893    0.07989319929817
N         2.32168270889996    2.13277675938614    0.15454820830595
C         3.48979825383337    1.36005523908073   -0.35134674149348
C         3.77121866733144    0.27289849428483    0.72514439770350
N         3.37480819523849   -1.00865002910807    0.01686968006563
C         2.27982134887838   -0.87557390088297   -0.67237417182359
C         2.22492407597465   -1.62608998693050   -2.00715374803902
C         3.54396493567273   -1.21292069802589   -2.78249542925029
N         4.18295275519368    0.13391168334073   -2.82177838058495
C         3.46888238057679    1.29124552476802   -3.37898402567220
C         3.94001120405357    2.47181502992083   -2.49870694422196
C         4.60893720400430    1.92361936817848   -1.23344830008514
C         5.21252136674878    0.64394422810803   -1.89276022891100
N         1.26923163585004    0.08338565657767   -0.49993935543258
H         0.16704506426837    2.80162169012112    1.22129028036993
H        -0.37944078328085    1.11019591973938    1.30021539901379
H        -0.75901199478991    2.04757544552282   -0.13988915221402
H         2.98795735156004    0.82642561527641   -1.12224921850483
H         3.08042185588854    0.42908083178397    1.56422585801883
H         4.82627932448240    0.19434683217468    1.00765372720525
H         1.29054017650164   -1.32247427135128   -2.49519118515592
H         2.30501319094773   -2.70144598808806   -1.81732861049142
H         3.49021174613840   -1.47074060394235   -3.85154744427475
H         4.36957690751336   -1.82023251718536   -2.38996787475905
H         2.37361307705331    1.27812153757473   -3.34037825282988
H         3.70087851408241    1.38300876437838   -4.44579900663595
H         3.19987140278100    3.24935772334485   -2.28857292484420
H         4.70396958202586    3.01380874349037   -3.07144452625773
H         5.33009565425932    2.53870441533817   -0.68828822634752
H         5.56896799289126   -0.13560877052655   -1.21452532889915
H         6.05854830163696    0.99052734037880   -2.49768693530076
H         0.31935698346526   -0.13253230322247   -0.80293899923113
