33
 energy: -44.346191765871 gnorm: 0.124977367007 xtb: 6.4.1 (79825abcba525fcdf90b791dcacef51065a7a4e7)
C        -0.10035469540078    1.83374893903813    0.48025334577273
C         1.28117424639999    1.35541317335792    0.11500493969392
N         2.32384072482540    2.12919348223673    0.13252346292236
C         3.45728728995752    1.27417638322619   -0.31666116087643
C         3.88627060545006    0.26420293138593    0.78600259456601
N         3.50446238419239   -0.99588436671750    0.03263452788455
C         2.39387214768534   -0.79655475153587   -0.61437363698990
C         2.20637703489959   -1.38344196035361   -2.01734677429397
C         3.56889798566163   -1.28600904167079   -2.82094858462564
N         4.20972959368148    0.05981970522081   -2.86437549980003
C         3.51865548587211    1.24769451560677   -3.38511177845366
C         3.89144627689800    2.45674084751333   -2.49638884007069
C         4.53097079516347    1.87088678568371   -1.23280531512139
C         5.16998686162895    0.60304657415972   -1.88150724456816
N         1.29974604079151    0.04745395407093   -0.36705572698093
H         0.03913671085088    2.58967705632425    1.24550869111946
H        -0.76603410488560    1.07830326609519    0.90216601060760
H        -0.58811102551002    2.33871704567316   -0.37262986472760
H         2.97386282194194    0.74981436347154   -1.10548354367465
H         3.31295884439080    0.53700059067591    1.68185186453066
H         4.97224005304395    0.33094577268757    0.90990025524002
H         1.48891522914809   -0.69395033242696   -2.47917593817990
H         1.90070600331022   -2.43389838068991   -2.06144787105749
H         3.39550838685729   -1.55710662787676   -3.87388489245174
H         4.39098745213059   -1.85954726862802   -2.37399951842786
H         2.43457701593189    1.16027841511251   -3.24942908832298
H         3.78395670432524    1.41025926702186   -4.43559969838259
H         3.00713755288239    3.04384272830582   -2.23210615883734
H         4.61288683373519    3.14842317026898   -2.95083026960596
H         5.25981620695617    2.52863966981492   -0.75140720099685
H         5.41870031246742   -0.14705235144326   -1.12635634647717
H         6.04743945741661    0.88360565300625   -2.47579782678065
H         0.36259580988727   -0.30426805273798   -0.56386091119764
