33
 energy: -44.347837979210 gnorm: 0.107242260801 xtb: 6.4.1 (79825abcba525fcdf90b791dcacef51065a7a4e7)
C        -0.06393577511451    1.87224987469407    0.52743617631618
C         1.28167179653356    1.38937492472328    0.05098497507502
N         2.34903274008335    2.12487350994784   -0.02633691857661
C         3.52436358771415    1.30400678174993   -0.42919839891984
C         3.76328578368502    0.31474243629420    0.74732726442939
N         3.31008065812541   -1.00782245721249    0.15860987138691
C         2.30605823515118   -0.80757341131559   -0.64363810618840
C         2.31810542272126   -1.61961196369526   -1.94301212951084
C         3.54019110115360   -1.19448060968884   -2.85816363563187
N         4.20721734129100    0.13890910953653   -2.88904864059980
C         3.42894774799919    1.35063924120164   -3.18196974316569
C         3.97872226549070    2.58543384050048   -2.43122029159867
C         4.67457693709721    1.87871272954619   -1.26280621401206
C         5.24685996918580    0.59604418723424   -1.94385544873458
N         1.24208255041679    0.08528927742612   -0.44021560152008
H         0.10329854918045    2.71270460788182    1.19239439443330
H        -0.61273388911855    1.09302302432455    1.05984925165975
H        -0.69447733461531    2.12802444466017   -0.34279684091658
H         3.27254606970867    0.54819178061112   -1.13363229211190
H         3.22369610035561    0.58351358938098    1.66507226622152
H         4.76964360488309    0.18316945071817    1.15850527420234
H         1.42898594950802   -1.39988307837075   -2.54685158322218
H         2.32546498557293   -2.69985782436443   -1.76453782023388
H         3.17924239410842   -1.38759713521800   -3.88024717180252
H         4.34567734465965   -1.88210876391118   -2.57023989029828
H         2.38550072550610    1.14459935002278   -2.91731266897073
H         3.40882264125653    1.54101161461624   -4.26071449499250
H         3.08999749130129    3.09623493400314   -2.04940045169499
H         4.60285282371238    3.22899713661918   -3.06502250982240
H         5.43894647288448    2.42995985233670   -0.70831144434331
H         5.50112839299955   -0.23113186932764   -1.27610774776668
H         6.10846945195017    0.89399554106037   -2.55268369636899
H         0.39007144039757   -0.22118193037516   -0.91015566433068
