33
 energy: -44.343781128502 gnorm: 0.137240272940 xtb: 6.4.1 (79825abcba525fcdf90b791dcacef51065a7a4e7)
C        -0.05946640325323    1.92198319206087    0.43685959799979
C         1.19737583154996    1.22611301185036   -0.01805359440807
N         2.32142875316233    1.63801068658797    0.48497879523244
C         3.39941272140571    0.76761361070347   -0.06080657722077
C         3.31070739540956   -0.67911809789290    0.50402892157931
N         2.91668367096639   -1.46654106136655   -0.73123272929347
C         1.97845895930787   -0.81432498934729   -1.35261114193922
C         2.19283321141513   -0.86639671716596   -2.86894120018831
C         3.63538401868279   -0.42556304611141   -3.35519752500464
N         4.46329140274100    0.66303761192971   -2.76078687145108
C         3.90628480267498    2.02230244393452   -2.71675251830240
C         4.46929540295307    2.56297960879967   -1.38210584679206
C         4.75067142755243    1.35465314347352   -0.48230886693816
C         5.30898831533651    0.39467934930986   -1.57926241877600
N         1.06158168365270    0.13605318991886   -0.87643244117576
H        -0.59585244880178    1.16504246953410    0.99884862865529
H        -0.64921494042137    2.30791594628433   -0.39686104647400
H         0.24230409149163    2.72980720117532    1.12726798412203
H         3.09217378140720    0.66548107087336   -1.07375705687601
H         2.63632202186204   -0.65559904184266    1.37022871157427
H         4.22035695960751   -1.13081324181325    0.91347250066043
H         1.50323094901331   -0.14581673505429   -3.32572290943088
H         1.80142320709301   -1.81201160132669   -3.25810578464846
H         3.47264886082266   -0.15817358445520   -4.41077929197542
H         4.18421870778192   -1.36146377209009   -3.18963492757477
H         2.81687009560137    1.95599566559342   -2.81703463756337
H         4.32076071420562    2.48257805894186   -3.62046319323812
H         3.72037778295350    3.22173872632157   -0.93300151803210
H         5.38864055818798    3.13215981816988   -1.57251672332492
H         5.37938856218804    1.58313859495835    0.38262338390801
H         5.21481673391513   -0.63656490453191   -1.22936720557435
H         6.35137137338938    0.50257598923650   -1.90115312171230
H         0.10333195991867   -0.17189443901680   -1.04261587377954
