33
 energy: -44.337415366901 gnorm: 0.130198776036 xtb: 6.4.1 (79825abcba525fcdf90b791dcacef51065a7a4e7)
C        -0.09930264965307    1.83086635798904    0.70922037694975
C         1.20441903944633    1.35683590477643    0.12063004506093
N         2.27773503329245    2.08736466488592    0.14336175248637
C         3.39528308549546    1.30978167760089   -0.45994016409874
C         3.82679112696992    0.23354172367402    0.57709829664793
N         3.32076786921582   -1.08381396996069    0.02061344347493
C         2.22633471730269   -0.82956131172253   -0.63462253492180
C         2.21234420086615   -1.46921131951161   -2.02695035231211
C         3.62456219719533   -1.16228776668851   -2.67746602239329
N         4.23183634345611    0.19133818928774   -2.82820066930410
C         3.49340809662442    1.33617902189165   -3.37943514341105
C         4.15702182674604    2.50577514637239   -2.61637800943717
C         4.56171679796967    1.86440215924361   -1.28456624492437
C         5.28158949179957    0.61272936751157   -1.87758652136016
N         1.16648039503951    0.05038220118376   -0.36436898492508
H         0.15440923385373    2.80891445596074    1.10362259631369
H        -0.66593119775873    1.18444078912119    1.38220150611555
H        -0.74795481782148    2.00049526395469   -0.16872335417833
H         2.90754139721508    0.67083286606348   -1.15617859208592
H         3.23995318394682    0.48265546431253    1.47108623050797
H         4.85391732812480    0.30637866282743    0.94971259465208
H         1.41271569656290   -0.98262237341985   -2.59901832704570
H         2.10954767583019   -2.55928396565894   -2.03053826128677
H         3.66794451674662   -1.63200931090576   -3.67230890712429
H         4.33035742075399   -1.75467846327449   -2.08125547217467
H         2.44726667960140    1.21582067312607   -3.07549518565851
H         3.67835337218816    1.46364278530333   -4.45176211649003
H         3.47773557154200    3.33031275572554   -2.38133804469704
H         5.01026979562800    2.91413239371736   -3.17372008129667
H         5.22720781518597    2.54522065681713   -0.74678700866245
H         5.50862582641097   -0.27386392667532   -1.27995244590402
H         6.12955166421384    0.98887099824881   -2.46179143082920
H         0.26073205064736   -0.36983268414983   -0.57348756890345
