33
 energy: -44.340970593162 gnorm: 0.118790120362 xtb: 6.4.1 (79825abcba525fcdf90b791dcacef51065a7a4e7)
C        -0.08480806014927    1.67087043014590    0.66590173121656
C         1.18885487755377    1.14345924358730    0.05725250142968
N         2.31148235582367    1.67765754664183    0.43213377215236
C         3.38944182522066    0.86570528876403   -0.19735736745540
C         3.20017757936137   -0.54062517568241    0.44010172051440
N         2.82248121750197   -1.41490819155917   -0.74063348801680
C         1.93536845667475   -0.76572847717707   -1.43587387851753
C         2.15549362329340   -0.82402773137873   -2.95115297380081
C         3.65050808796632   -0.47106055503511   -3.34112514432114
N         4.49032321389053    0.63271433044419   -2.79322222486699
C         3.98849609140346    2.00575292093723   -2.64245477068205
C         4.64972416394005    2.60773456903160   -1.38111024982447
C         4.80532536996291    1.38259805967919   -0.47353726774226
C         5.27481371541255    0.37369319691549   -1.56819072960762
N         1.00904575881632    0.13727734738503   -0.89077249073025
H        -0.45770635205745    1.04434143345670    1.46896411450708
H        -0.84409806076939    1.77515473273013   -0.11155632073164
H         0.08644090465445    2.71192059375469    0.99331148637223
H         3.08342081518903    0.77915084285919   -1.21212579645702
H         2.38915828355643   -0.51919178047320    1.17999304240104
H         4.11948025016799   -0.80324955066574    0.97399863536993
H         1.40093546061579   -0.23099867587497   -3.48256132082777
H         1.94669139112844   -1.89189413854086   -3.07322405763425
H         3.58074425599951   -0.29751470037334   -4.42613554366603
H         4.14800552662887   -1.39309220450885   -3.01417775701898
H         2.89327728684638    1.96387844661521   -2.63800571803993
H         4.23799880672115    2.53427528402240   -3.56914210310684
H         4.09840036539404    3.44701195922960   -0.94729991727755
H         5.70709098143999    2.87220700177263   -1.51319989225167
H         5.55602454030931    1.46134362411648    0.31756862078400
H         5.02938008421130   -0.66022217155188   -1.31218095754723
H         6.31466669579548    0.44913287077055   -1.90706000429111
H         0.17673994170480    0.26379996932731   -1.46692374072085
