33
 energy: -44.347119637514 gnorm: 0.130117916797 xtb: 6.4.1 (79825abcba525fcdf90b791dcacef51065a7a4e7)
C        -0.01926613713807    1.97137933988272    0.31462305815989
C         1.20625133227589    1.13553088983642    0.04948534764504
N         2.33077750221330    1.60793656351572    0.49498508015416
C         3.41940881059549    0.76870017055943   -0.07780312431029
C         3.39958097103903   -0.66538534097217    0.52464688662139
N         2.94672142189408   -1.51053145961908   -0.65085607853776
C         2.02474854200329   -0.87864548643644   -1.31602421441623
C         2.14683022013628   -1.05647173430512   -2.83306030222131
C         3.42771672050553   -0.34217101642486   -3.43375708060843
N         4.13861689706925    0.65723517634366   -2.58545627797313
C         3.95756137995471    2.11183076930318   -2.69112943193467
C         4.47890410637057    2.55099512028583   -1.30335030510976
C         4.79971852545083    1.29775375835216   -0.48156924084422
C         5.21118918710382    0.32007944218877   -1.62674143657992
N         1.11970157881454    0.10353741564743   -0.88377950831195
H        -0.85454344714063    1.34518423917054    0.60905882531426
H        -0.20783234443326    2.62916239409277   -0.53602480000355
H         0.24255945559201    2.63852972937226    1.15525764855059
H         3.13055093675904    0.68666433129232   -1.09796328070673
H         2.71139895896018   -0.55552267802289    1.37316710819835
H         4.42277858992953   -0.95523000571294    0.78578206201091
H         1.27460192860054   -0.65630569944880   -3.36458759409621
H         2.23674194979187   -2.11439379879967   -3.10055826425007
H         3.15750177174731    0.24301662622091   -4.32637795256657
H         4.15656995700765   -1.13205956506536   -3.65599499789761
H         2.90683856245929    2.40106228880903   -2.80776640402045
H         4.59520601564641    2.49577205864367   -3.49507924975527
H         3.74627470976528    3.12898146363552   -0.73262985748156
H         5.33427783112018    3.22501172070789   -1.44283270648419
H         5.58030347948699    1.41612941417989    0.27491801518480
H         5.21785662879558   -0.72528408318393   -1.30747618301920
H         6.23388479289286    0.65207091073135   -1.84050090648188
H         0.22567446089742    0.09948610838951   -1.37509437621378
