33
 energy: -44.338406347304 gnorm: 0.124897573857 xtb: 6.4.1 (79825abcba525fcdf90b791dcacef51065a7a4e7)
C        -0.07457281425651    1.84643584997552    0.56634419575775
C         1.23935814949018    1.38632031110550   -0.01046842383518
N         2.30408217147132    2.12671479020674    0.05567520589096
C         3.51855481703596    1.39375843872436   -0.39748406737839
C         3.80524027656435    0.34793923151072    0.71786969991017
N         3.39031104635156   -0.92977333831945    0.01328097966663
C         2.32553572007664   -0.78642948903179   -0.71984148971768
C         2.19443770013972   -1.55499774127202   -2.03894752743817
C         3.54022988952960   -1.27016225475235   -2.82599548614362
N         4.19839285949254    0.06423839751791   -2.72598327283370
C         3.48277357051054    1.24753503002155   -3.22347132388921
C         3.95469711610229    2.50833038183313   -2.46302559244589
C         4.68020804573308    1.91292305416201   -1.25142173167687
C         5.27439710266396    0.61025169462936   -1.87316219655815
N         1.24176925144844    0.05276426475830   -0.41680217906524
H        -0.00750172479150    2.53371064042021    1.40279845816884
H        -0.70541664988085    1.01355774825377    0.88286853170839
H        -0.51541786282075    2.43763938044689   -0.25611724647609
H         3.10014202290810    0.83536060832770   -1.19999144298944
H         3.27359991856408    0.50696098457395    1.66535133869952
H         4.87391054925056    0.24481094250194    0.93337671576665
H         1.25511061066794   -1.41922705718399   -2.58909953833838
H         2.27276214428156   -2.64481179201887   -1.96817335940325
H         3.29949266943553   -1.46642849037434   -3.88228989236166
H         4.35516339764247   -1.84086063808357   -2.36260862201935
H         2.41271393048279    1.11519055932477   -3.02665973592216
H         3.52352732137349    1.46348666325911   -4.29680301750462
H         3.19730704068717    3.16597253778205   -2.02667373977440
H         4.68237735795527    3.02664714184121   -3.10118476275134
H         5.30186698547484    2.60289688907456   -0.67429532025854
H         5.58820324168126   -0.17281054748668   -1.17810904574057
H         6.09302206049444    0.91224774729488   -2.53684081447705
H         0.34884738706190   -0.37408945487855   -0.66414330682272
