33
 energy: -44.339707303360 gnorm: 0.127867229402 xtb: 6.4.1 (79825abcba525fcdf90b791dcacef51065a7a4e7)
C        -0.04661411708762    1.92420786551313    0.50999142834246
C         1.22887259166691    1.29989704757292    0.00580557906243
N         2.33508317706571    1.95009191880916    0.20515704221053
C         3.47972296274462    1.18327751204472   -0.35992489371194
C         3.82113471383826    0.04041536916739    0.63869642987161
N         3.27786466317480   -1.16790837271057   -0.10020298096454
C         2.15523589208185   -0.90024845192404   -0.70005741354145
C         2.22417729439494   -1.48010067405043   -2.11672360721297
C         3.53861573421078   -1.02631618953783   -2.87702853884772
N         4.26796088182280    0.27437438689568   -2.88513540049382
C         3.53402548021476    1.51646354571016   -3.16504538279921
C         4.08582547035569    2.63834806606909   -2.25538261025679
C         4.66381770660388    1.81766093098561   -1.09725588407417
C         5.25762794330733    0.57359555916562   -1.82955724176938
N         1.09754118299430   -0.01618521759581   -0.43483512431747
H         0.15625652048102    2.98702144379286    0.43401959452986
H        -0.24265547063462    1.73505840192255    1.56717060235963
H        -0.97434278624845    1.76419964546372   -0.06795811509997
H         3.02459134704551    0.62314513904687   -1.14095141558377
H         3.12440423539595    0.22720987996650    1.46654019957080
H         4.86607660458174   -0.00528023505240    0.96295439418611
H         1.41258581329450   -1.09182150607716   -2.74441371145784
H         2.32805143185742   -2.56867765316995   -2.17193861295445
H         3.30133188516815   -1.20260575311593   -3.93761850973779
H         4.36223245741228   -1.71663590607685   -2.65419489054361
H         2.44181331541679    1.47490655986138   -3.08366297965833
H         3.68614040482833    1.86742745759079   -4.19170125766700
H         3.23280682509737    3.28587471576803   -2.03266238109568
H         4.86977812713287    3.24224139237695   -2.73093387625706
H         5.46167062271044    2.28141119154174   -0.51077054639603
H         5.56672974824471   -0.27740238807021   -1.21716992843122
H         6.10811034682031    0.79760717144926   -2.48401597168701
H         0.16600901415762   -0.36120874429202   -0.66699407997086
