33
 energy: -44.341846612954 gnorm: 0.116169381428 xtb: 6.4.1 (79825abcba525fcdf90b791dcacef51065a7a4e7)
C        -0.07214820266243    1.80177073409838    0.62364849639563
C         1.28557231889915    1.38682435669198    0.11842757823598
N         2.38425590029763    2.07847200227412    0.14515100103195
C         3.51769506059268    1.28475266353462   -0.40516476069886
C         3.75605430370589    0.26838357667264    0.74814315275763
N         3.35315366564366   -1.04810502217673    0.11120532769204
C         2.28663309261911   -0.86191433254445   -0.60964792170201
C         2.18296567090523   -1.45644820523959   -2.01808930877948
C         3.55734079457121   -1.17300744396443   -2.75462627986880
N         4.24953930323503    0.13832201802415   -2.91300020438315
C         3.57262710448330    1.32628217328679   -3.45182929338798
C         3.92876083919271    2.51206274897552   -2.52571502005714
C         4.60582485985625    1.88270270683289   -1.30327886512359
C         5.24886565102541    0.60597977983800   -1.93021716051655
N         1.28560901193993    0.10614734655569   -0.43234557843056
H        -0.25327185318758    2.86755644144574    0.53535381824370
H        -0.04135496560587    1.50862422182348    1.67481662776891
H        -0.88166406229904    1.19156523058745    0.18473836287832
H         3.03417252379931    0.79609103514356   -1.21652858521385
H         3.12534076970719    0.48719254664974    1.61990798479238
H         4.73133276802610    0.20096404225518    1.24152068433924
H         1.36337919012568   -0.86774656477029   -2.44837374048211
H         2.03766711620893   -2.54000215802663   -2.07840121205975
H         3.41938092467564   -1.56207339507310   -3.77532578353508
H         4.30119059708912   -1.87990158602555   -2.36535928833081
H         2.48201046658764    1.21750617149742   -3.45104152189379
H         3.83102544299358    1.43572836744585   -4.51088015525596
H         3.06940035045317    3.06709654221205   -2.13845166158800
H         4.46586065797237    3.30682457952849   -3.05984547003791
H         5.34913997371331    2.37921559150288   -0.67355176323652
H         5.48062400108630   -0.09419939948347   -1.12349736020761
H         6.17499606663944    0.91186837718809   -2.43074924110965
H         0.38943414679289   -0.15539304589840   -0.84363432193727
