33
 energy: -44.346858671936 gnorm: 0.129040356038 xtb: 6.4.1 (79825abcba525fcdf90b791dcacef51065a7a4e7)
C        -0.07584069376056    1.85452849244465    0.57889134428952
C         1.25650034534238    1.33433189318172    0.10444793102404
N         2.30009905747879    2.10693487278389    0.09093549420873
C         3.43336633037069    1.32173979100466   -0.47182212364252
C         3.79408464322984    0.33023315525751    0.67130398286151
N         3.30965306293294   -0.98780740922637    0.09749560072904
C         2.23656832202773   -0.88799051542045   -0.63071332887076
C         2.21400104650726   -1.52760495897989   -2.02294487286947
C         3.58240443829415   -1.16978198842849   -2.73790447912096
N         4.20678282165531    0.17104137671969   -2.92803702238957
C         3.42392370701878    1.35985721269572   -3.29361159458310
C         4.10474833044182    2.53391640707823   -2.55289754239281
C         4.62038323669673    1.86706550060822   -1.27294034600027
C         5.17972382010764    0.54211358481894   -1.87974761366170
N         1.20349367276563   -0.00479306962297   -0.27950429066376
H        -0.02284405492798    2.81854510007019    1.07322346247099
H        -0.27507810640537    1.09165727900950    1.33398704173572
H        -0.87887159608198    1.82803567690877   -0.17923020781847
H         3.03313099779738    0.75757592200060   -1.27955122099801
H         3.38414028173026    0.64333505408173    1.64061490712928
H         4.87351649718697    0.15626757705247    0.73211290705944
H         1.38029223253147   -1.09672010334067   -2.59101543196619
H         2.28596473234214   -2.62004495858044   -2.03825633035478
H         3.51369077805980   -1.51921565658319   -3.77973328654216
H         4.41797747707763   -1.69091682039504   -2.25336672296153
H         2.37369449765832    1.18450338430232   -3.03371327576786
H         3.62295838356117    1.50895782521631   -4.36061258317150
H         3.41431309818121    3.35595657398471   -2.34293319772322
H         4.96396844690387    2.97769181858447   -3.07272645757951
H         5.35382581980866    2.45743910343219   -0.71695507997839
H         5.40998795111077   -0.15909835720668   -1.07349709580543
H         6.09152095665922    0.82203147222939   -2.42020085760255
H         0.32200452124382   -0.22499805157634   -0.74337694845123
