33
 energy: -44.341823028414 gnorm: 0.126410218879 xtb: 6.4.1 (79825abcba525fcdf90b791dcacef51065a7a4e7)
C        -0.00343643290502    1.94657434716960    0.36584141354872
C         1.32957308270287    1.38261022567963   -0.05351978195024
N         2.39617602537973    2.12204794437295   -0.01125563015942
C         3.55306451185675    1.25762724888839   -0.37444713080843
C         3.71330586893896    0.27048919856933    0.81711553408485
N         3.32286520775753   -1.07906983178679    0.24492022524662
C         2.33357107577706   -0.87972993768296   -0.57564254395971
C         2.31663623251902   -1.56806406289430   -1.94452308417361
C         3.57207772872808   -1.12360684937001   -2.80362539622024
N         4.19247536658004    0.21337784910063   -3.03030738747160
C         3.31315474908984    1.38457230992464   -3.15235262099143
C         3.98938057374298    2.55204971961739   -2.39716416866347
C         4.68294699047406    1.83373167659730   -1.23447558996520
C         5.19268511833973    0.57540040851561   -2.00476383799753
N         1.28353299529888    0.01276091165421   -0.30823110822748
H         0.03124408151697    2.81533861527036    1.01433722272323
H        -0.63904237006387    1.12205660738486    0.69449492465724
H        -0.40155537976746    2.32097999458377   -0.59417448094132
H         3.13672381358153    0.61084127071440   -1.10876573674799
H         3.00170043574260    0.57717505985810    1.59506948128172
H         4.74076950834618    0.24167215154373    1.19477003502280
H         1.40654060527574   -1.36347001850907   -2.52184754128343
H         2.30908669841138   -2.65713723683585   -1.83182441349120
H         3.26746090010737   -1.34225653529284   -3.83882277933213
H         4.38421228552806   -1.84703546142315   -2.65655686632868
H         2.28004374367686    1.30089997210636   -2.79604084324935
H         3.21572982279352    1.50789539133367   -4.23662044115929
H         3.22980079362585    3.26311562323811   -2.05958497593417
H         4.75867256904763    2.98845784575580   -3.04766835731373
H         5.37332148659984    2.46865676445762   -0.67246863280463
H         5.41674581664097   -0.27397199567263   -1.35428480079965
H         6.05732612037001    0.89687483373393   -2.59710485675194
H         0.41265854878738   -0.50209037767814   -0.43936863176757
