33
 energy: -44.346455054659 gnorm: 0.124875240973 xtb: 6.4.1 (79825abcba525fcdf90b791dcacef51065a7a4e7)
C        -0.04453737564516    1.83733570704143    0.71383771061488
C         1.21535126471992    1.34567265725438    0.04917104488722
N         2.22273570131526    2.15490214047369   -0.07936099993665
C         3.44204672481864    1.37875909253786   -0.43769710237794
C         3.66512944736298    0.31043632458054    0.67084291457600
N         3.37493414062988   -1.02300537354081    0.00836205701608
C         2.25904320175666   -0.86968250910998   -0.64205477600740
C         2.23700779468158   -1.50841873348344   -2.03469798436822
C         3.60025932586559   -1.21953768153600   -2.78956577403353
N         4.17214025932625    0.15712563452382   -2.75011499304947
C         3.64018267106729    1.35945473926731   -3.40679002642597
C         4.05637331246903    2.51088412018117   -2.46254948639688
C         4.67066826224661    1.82032376751712   -1.23999967971558
C         5.31888120933101    0.57124537197556   -1.91542373903090
N         1.20680648093080   -0.00010984404767   -0.31453372134070
H        -0.02443894233498    2.89617062538838    0.94828509927631
H        -0.24091752218305    1.31031352258945    1.64952996513996
H        -0.88940003937713    1.77004406959870    0.00532679945930
H         3.05442543905683    0.79438276477091   -1.23716538897864
H         2.95354302334475    0.49177641612569    1.48718315441665
H         4.67225930023999    0.17680801464158    1.07945986253209
H         1.41220519485052   -1.05411657834776   -2.59750038467924
H         2.10144967568531   -2.59401167371360   -2.07886061721449
H         3.46857255146819   -1.62275340936006   -3.80559155594094
H         4.32992152386869   -1.82236397343317   -2.23392722554590
H         2.54583677268832    1.30128725712980   -3.42414206998655
H         3.84069523882914    1.56523673704786   -4.46404372347261
H         3.19020834803808    3.11367650180356   -2.17456429150076
H         4.69631153249601    3.24119842227303   -2.97493412678140
H         5.40054905908844    2.41994291365856   -0.68924607512109
H         5.62999812471281   -0.22248480873015   -1.23134894782271
H         6.16316177085249    0.87408488500449   -2.54573819238599
H         0.23941998181557   -0.29470749883186   -0.44894648606654
