33
 energy: -44.347110033468 gnorm: 0.118950555279 xtb: 6.4.1 (79825abcba525fcdf90b791dcacef51065a7a4e7)
C        -0.09476840915291    1.74814108590367    0.65363246554006
C         1.15950285718543    1.19888834635974    0.02437995273093
N         2.30819386814784    1.55989842059405    0.51056605705333
C         3.40115678595196    0.78735860790670   -0.14222522897770
C         3.33319229488302   -0.62875492437313    0.49804322498117
N         2.70777604078918   -1.41934979888729   -0.63552424188306
C         1.93153863159945   -0.73570255537724   -1.42409539322237
C         2.07598009390794   -0.75921695026639   -2.94938498827982
C         3.57007878422029   -0.42014496494624   -3.35488670837689
N         4.52593912782838    0.52795431724897   -2.71360300521250
C         4.12407727773697    1.93965794810422   -2.78706158893556
C         4.50583889509673    2.58315488944082   -1.43400422930946
C         4.76062560189511    1.40320730118122   -0.48972284371027
C         5.34214445719082    0.35885880977510   -1.49358865620530
N         1.01617097790629    0.22197554991725   -0.95978571475102
H        -0.68006220522758    0.96579655469657    1.12466231082553
H        -0.76081600339230    2.21344632664654   -0.07555144249794
H         0.19913181756715    2.50143758923045    1.40627835207369
H         3.10396732953795    0.68570515771252   -1.15821759720875
H         2.70849704472305   -0.70085683327184    1.39815877721158
H         4.32509605359133   -0.98301456499715    0.79764614805712
H         1.32717756018266   -0.03607152948769   -3.29549447555987
H         1.92383189897007   -1.77314535222886   -3.33362253989289
H         3.54630730843875   -0.22583085264334   -4.43835782374460
H         4.10286643177087   -1.37869725795179   -3.31181146447827
H         3.04124999361768    1.90252875820111   -2.95254267848120
H         4.65704776592444    2.36939663670058   -3.64240013122289
H         3.60487538368242    3.09238776477546   -1.07976913404697
H         5.41035434661895    3.20541550298618   -1.42616513111551
H         5.50764230846472    1.71603361126566    0.24492289828647
H         5.40445710880548   -0.67309303307390   -1.13869123615740
H         6.29393698248844    0.78480113774615   -1.83194035355362
H         0.14680357157754    0.25667108582512   -1.49240916119716
