33
 energy: -44.343347623809 gnorm: 0.129260366768 xtb: 6.4.1 (79825abcba525fcdf90b791dcacef51065a7a4e7)
C        -0.03160974884994    1.89721252701106    0.66290463287841
C         1.26054712025871    1.33171705665567    0.13245273546414
N         2.26353535355528    2.15458878832296    0.07683829563303
C         3.44678282005573    1.39557172837421   -0.41442610355202
C         3.79393775316690    0.31195677687460    0.64632952443741
N         3.38534630464274   -1.01346072489655    0.03193353233344
C         2.30444156350457   -0.83490382327151   -0.66915484712352
C         2.28359005866917   -1.58549276324639   -2.00485918954598
C         3.57207034072130   -1.20966133034938   -2.84765315355719
N         4.22501115639285    0.13053529987906   -2.88435918766448
C         3.52396039916441    1.32052120644422   -3.38661174533787
C         3.98938679403243    2.49930050480086   -2.50091873790254
C         4.63162108507442    1.89987175002395   -1.24510020019213
C         5.15339589913347    0.54190179538137   -1.81100052015395
N         1.24604895443167    0.05498149137078   -0.42720859751834
H         0.00767247748630    2.93974255164889    0.95970248228001
H        -0.41640276804542    1.37252136817570    1.53952944342804
H        -0.78394950372739    1.74245136235029   -0.13103659598130
H         3.02301836241994    0.81689089010486   -1.19956791663266
H         3.20692892592932    0.47213049687566    1.56034039513392
H         4.85073388447954    0.18687175721753    0.90453593735952
H         1.34705717938242   -1.33633174386883   -2.51892267641159
H         2.35911943626437   -2.63635762413996   -1.70683781357954
H         3.29643080155362   -1.26242736432646   -3.91229925185034
H         4.41741247202202   -1.90600074924388   -2.77659862561282
H         2.43155370425455    1.33849317773275   -3.29942164171378
H         3.85379546542226    1.37306375545043   -4.43006036161644
H         3.21676847847303    3.18018400964471   -2.13214446407302
H         4.54762127350313    3.19126084621589   -3.14511053881421
H         5.32291883632115    2.55887323125534   -0.71272523812046
H         5.29233626835835   -0.22930653297051   -1.04896840509818
H         6.17398302023376    0.62212718504251   -2.20315299469060
H         0.29212468238176   -0.30648102507705   -0.41917493224105
