33
 energy: -44.343820513073 gnorm: 0.120543426625 xtb: 6.4.1 (79825abcba525fcdf90b791dcacef51065a7a4e7)
C         0.05391052665020    2.02773660615040    0.54558258254546
C         1.24811090632258    1.34124853403825   -0.06552565306827
N         2.30767494631555    2.08207287630490    0.05571611429129
C         3.51265978022573    1.32310043717878   -0.37959360026138
C         3.79265262919663    0.27001433103532    0.73061091111795
N         3.30855880594628   -1.01361032757071    0.08321470400018
C         2.24225024854404   -0.91016611847663   -0.65438130213964
C         2.30702748412938   -1.60918919067809   -2.01640011332966
C         3.65409630227060   -1.21612704290498   -2.75304120772018
N         4.12404329556490    0.19460513590436   -2.86613667690720
C         3.31460037954475    1.37125604329728   -3.21267824062222
C         3.93119587671819    2.52827420562285   -2.39309698722774
C         4.66963363472372    1.86974466077397   -1.22266611295562
C         5.22050535159743    0.61432593364741   -1.96901636069291
N         1.19444162430242   -0.00368339861644   -0.42851652513394
H         0.45788230585514    2.90663713854053    1.03633870124131
H        -0.47562115577139    1.27454920955371    1.13221916865281
H        -0.73497773991394    2.33147953927621   -0.16554632376870
H         3.12985524768738    0.76855218215036   -1.20229185302848
H         3.19387914611660    0.49165236446560    1.62391810702195
H         4.81642734763569    0.02720951401918    1.03403473479664
H         1.45056891863543   -1.38908634798166   -2.66560714191482
H         2.27111032699570   -2.69944889931103   -1.92215526970691
H         3.70815568357405   -1.67535945791380   -3.75224883639260
H         4.51321117952495   -1.66670176604614   -2.23977256672833
H         2.24001134724724    1.19874753733307   -3.08315326854640
H         3.48394163166332    1.54057977652442   -4.28178530619716
H         3.10239976161412    3.17861602196599   -2.09866805773316
H         4.59031703966841    3.00006257943258   -3.13363256954785
H         5.30961441529234    2.49837592831991   -0.59748936974141
H         5.62342507749548   -0.17027134952653   -1.32339847785812
H         6.06325137368649    0.95009675693308   -2.58452821681318
H         0.28865551655704   -0.33924266828541   -0.75660598441402
