33
 energy: -44.343239117908 gnorm: 0.132071253173 xtb: 6.4.1 (79825abcba525fcdf90b791dcacef51065a7a4e7)
C        -0.07214316858641    1.80157155688628    0.62753405413753
C         1.27434283056951    1.35475314950129    0.11943715612589
N         2.28891961584869    2.16313047791097    0.17737041800948
C         3.44410800118624    1.39140752418353   -0.35882510876502
C         3.78924718129790    0.31146787391294    0.70632732214965
N         3.42093714765740   -0.96739352377677   -0.02169890786654
C         2.31262324032950   -0.85037061764642   -0.69230194565696
C         2.17551391986491   -1.56626492294407   -2.04012276778583
C         3.53814480576388   -1.20401855479326   -2.76382644166713
N         4.16561694029000    0.14878333005449   -2.76038783950988
C         3.54008257100818    1.29569486167032   -3.43351259851639
C         4.07795890369173    2.45377961132311   -2.56166213706581
C         4.59034945658363    1.95257657066845   -1.20699932209078
C         5.18363952893226    0.64020813548032   -1.80888843529885
N         1.28485871965085    0.05467844268697   -0.38373263536242
H        -0.16521225962862    2.88187669716333    0.59960818235605
H        -0.30708334561771    1.47147722225331    1.64127878283975
H        -0.72134375909091    1.38129572291964   -0.16127239797282
H         2.96299399043571    0.88067862526352   -1.15793761156445
H         3.15520966113285    0.44544259380791    1.59272342271775
H         4.82295872479754    0.09092021186600    0.99256855904478
H         1.34374208201145   -1.04364537654171   -2.52844718346335
H         2.02352291438647   -2.64115149447778   -2.18279703531494
H         3.45309124185821   -1.48421458392038   -3.82518820581103
H         4.19615577120545   -1.92848309953335   -2.26712396665118
H         2.44747354549243    1.21999282407936   -3.47537200848572
H         3.83544095927051    1.43863996247348   -4.47881974066028
H         3.30060213898543    3.21458972054659   -2.44581608052168
H         5.00818561794851    2.78183909553700   -3.04381684380713
H         5.34086378243897    2.52269590507991   -0.65266114002257
H         5.37460204010179   -0.13638205974055   -1.06377056372834
H         6.11611571119753    0.86211446309484   -2.34092555595907
H         0.33333894884334   -0.13250463614811   -0.70037725775435
