33
 energy: -44.344274731799 gnorm: 0.116354177096 xtb: 6.4.1 (79825abcba525fcdf90b791dcacef51065a7a4e7)
C         0.00094023925808    2.00766543009532    0.45448874922143
C         1.26952779304452    1.27370075566042    0.10403878109056
N         2.39988249915988    1.89681675086396    0.24623909840240
C         3.56673572144248    1.11937539728550   -0.25531912823328
C         3.74119092897031   -0.11985186483837    0.66870552900676
N         3.10958631918862   -1.26056300126727   -0.10654582974364
C         2.11905391471694   -0.89330875959888   -0.86531615820471
C         2.17017730125357   -1.39045624331700   -2.31381724479739
C         3.54308344057098   -0.94638225115411   -2.96930133083909
N         4.18037655300800    0.39698343488011   -2.85514283126880
C         3.63505542310062    1.72172686181660   -3.18297809918045
C         4.04308774514535    2.64118790495872   -2.00879945996708
C         4.75588083377394    1.72140388421249   -1.01141122978437
C         5.26123044857711    0.50835875280780   -1.85385873324920
N         1.13446585751683    0.06492480090483   -0.57721275821581
H         0.05535634563975    3.08048645021117    0.30417290493295
H        -0.24752949528346    1.76193054361864    1.48875887653347
H        -0.81642760363917    1.60965719659528   -0.17305252631318
H         3.09203719631215    0.64265685403616   -1.07890654495517
H         3.24788779186923    0.01714490575241    1.64006269733589
H         4.74910926816259   -0.45818754477064    0.93093531280239
H         1.28278010469720   -1.06287621558289   -2.86938348889361
H         2.20392291630474   -2.48422739614958   -2.35075332616443
H         3.42734035318058   -1.24348992074520   -4.02313399686925
H         4.31506357827651   -1.65934032889886   -2.65263415561889
H         2.56922944841915    1.51647481200631   -3.33517560509938
H         3.94359171539803    2.03872013368452   -4.18530415490441
H         3.21205731242220    3.15689140495207   -1.51892785265954
H         4.69279533497651    3.48118903074619   -2.28753962735431
H         5.43486002166654    2.33125002942915   -0.40918737644911
H         5.33055248947141   -0.46348950227289   -1.35841440903609
H         6.24752563509713    0.70398100043660   -2.29063268667147
H         0.20017646057186   -0.27746868126432   -0.80207099732043
