33
 energy: -44.349059772912 gnorm: 0.124250879509 xtb: 6.4.1 (79825abcba525fcdf90b791dcacef51065a7a4e7)
C        -0.02248385377851    1.85325575814848    0.67247034168407
C         1.23160418787531    1.30189636820754    0.04469672854995
N         2.23120013046829    2.11531368638573   -0.11454035528814
C         3.41222663603306    1.28474481182798   -0.47903165068542
C         3.74184954507921    0.32948621479366    0.70366448694254
N         3.39909769730381   -1.02486950709962    0.11256152863128
C         2.30246928866664   -0.86046649300133   -0.56724750004959
C         2.20364330217630   -1.45711784468261   -1.97514139322359
C         3.58851947575972   -1.18205036552908   -2.69499431878628
N         4.18416623676979    0.17174225857782   -2.88540574285281
C         3.52983035687566    1.40525944457415   -3.34374639600620
C         4.09983286213203    2.56912319448554   -2.50047136464969
C         4.61330999177536    1.81841259925777   -1.26692576440674
C         5.25178984865903    0.56436102344100   -1.94240532806267
N         1.18884164795144   -0.03055953200848   -0.36300086521706
H         0.13391349476978    2.77723995101988    1.21863330865129
H        -0.41684420883530    1.09009846177651    1.34619758038215
H        -0.73679756872033    2.07987400279081   -0.13913848241427
H         3.01129423442518    0.64159053659583   -1.22502178358873
H         3.08807506283250    0.56771853414233    1.55306141411648
H         4.77982442410505    0.24297525579053    1.04168649450271
H         1.31366487093030   -1.11909203172730   -2.52022235206800
H         2.23733074226445   -2.55045125226668   -2.02336576762201
H         3.50263854786537   -1.56476488669501   -3.72377358669141
H         4.34096408783605   -1.71542469634626   -2.10011653036752
H         2.45149749660377    1.29887085529877   -3.17895197108325
H         3.68885143638007    1.65295594297451   -4.39906418741165
H         3.29228678123958    3.28480764322040   -2.32102508591919
H         4.91167917226366    3.05239166004481   -3.05973434556719
H         5.34687087036435    2.37039284775291   -0.67295196678149
H         5.48222079803817   -0.27943587158002   -1.28691464735677
H         6.03916498209886    0.89814007352647   -2.62829868315618
H         0.30744108981970   -0.45434534155730   -0.65322464167746
