33
 energy: -44.343999937885 gnorm: 0.118530403107 xtb: 6.4.1 (79825abcba525fcdf90b791dcacef51065a7a4e7)
C        -0.11614030962809    1.85628305307878    0.47376329494067
C         1.24419783897057    1.35498158309976    0.06265423195605
N         2.27072210093158    2.13155609739566   -0.10874060359919
C         3.48883912013672    1.34031812688894   -0.43684966303245
C         3.74650067039952    0.29901828046889    0.68975832112259
N         3.37959666435498   -1.01117743517027    0.01899041046667
C         2.24540380098200   -0.88710907312608   -0.60549026390395
C         2.25547625789655   -1.58061145801047   -1.97182755444255
C         3.56980343568672   -1.19055151173710   -2.76689337663852
N         4.13523869607245    0.18473759526005   -2.87944946535255
C         3.45130506861341    1.44982648954269   -3.18207320025307
C         4.16029535721248    2.60430055689954   -2.43701155146870
C         4.70417795841893    1.84868448918035   -1.21959790622760
C         5.21511453838005    0.56453744971949   -1.94519056942836
N         1.20815066484993    0.01935209956123   -0.33518891295213
H        -0.18234552192213    2.93555845802217    0.38842644520341
H        -0.22194443766786    1.54716534488447    1.51543947952683
H        -0.77034209168684    1.39608349848499   -0.28817187245162
H         3.15202915847272    0.73009613005694   -1.24002066313075
H         3.13999207578208    0.49462281095125    1.58392667297012
H         4.79238503054037    0.07865425917041    0.92787693748975
H         1.31327130420631   -1.41623148509070   -2.50910341695681
H         2.32305850691136   -2.66574199489339   -1.84235658526964
H         3.25121903897834   -1.44598460371051   -3.78938574230773
H         4.33463358151285   -1.90569911367991   -2.43804781724625
H         2.44741761928215    1.50764627377781   -2.74601775438845
H         3.50041970450644    1.64101233930748   -4.25974319797530
H         3.41954246078713    3.37185707102540   -2.19477609750243
H         4.99986661683462    3.07651927913232   -2.96383932275634
H         5.45943357129827    2.34027483649464   -0.60030272888443
H         5.40584076785387   -0.29664932780625   -1.29963616183612
H         6.11834311695467    0.87924998722719   -2.48086948571736
H         0.28768392661048   -0.41840052779293   -0.37767205303979
