33
 energy: -44.344884770534 gnorm: 0.129114656988 xtb: 6.4.1 (79825abcba525fcdf90b791dcacef51065a7a4e7)
C        -0.20379642488606    1.65566076167459    0.52383579649457
C         1.17710887407095    1.22068862408250    0.10582442174293
N         2.31671836986006    1.63442543429333    0.57091397511310
C         3.38599297343529    0.84911896092288   -0.10544963680762
C         3.40376975348231   -0.60073111188385    0.45807424102299
N         2.78349611594610   -1.45956978798937   -0.62765947315291
C         1.90473433067136   -0.81109615541778   -1.33407451552533
C         2.08442721407299   -0.85653558682095   -2.85511703602558
C         3.50939366759747   -0.41889026589626   -3.39332659914549
N         4.35327315954747    0.57247828492126   -2.66609772425155
C         4.24559933186331    2.03041647352806   -2.81649331083524
C         4.54241450906471    2.56888149077111   -1.39784936670981
C         4.77887211724325    1.38292519562844   -0.45633177295005
C         5.24479897541272    0.33225435071999   -1.51254077882813
N         1.11698535373228    0.27232155264739   -0.91420978012308
H        -0.75516932277674    0.86659293621156    1.02369658066220
H        -0.65124806317936    2.00641326840698   -0.40814985581625
H        -0.15297559864021    2.49690964005890    1.23799709842915
H         3.08830908116966    0.73541726415908   -1.12001935626071
H         2.69366576201414   -0.60298065987465    1.29556938445481
H         4.39175840252507   -0.97016699985302    0.75223478732686
H         1.21072663368430   -0.32179473894791   -3.24771840949078
H         1.88235827396179   -1.87485009305317   -3.20302806656996
H         3.42908199980839    0.00023344218970   -4.40827392093349
H         4.07832805777112   -1.35379738617802   -3.47580681789214
H         3.22544780119418    2.22367449935330   -3.16751992344292
H         5.00709313899177    2.39915138706263   -3.51255268137259
H         3.70990647515433    3.20324099210157   -1.07995902609494
H         5.42251456362289    3.22526581164538   -1.39905045359920
H         5.52573039986793    1.52103381719526    0.33026046288966
H         5.22020560039472   -0.73672661712590   -1.28574900152528
H         6.23544601627845    0.65868068381758   -1.85000490766745
H         0.36604186984121    0.36287153749749   -1.59873574579017
