33
 energy: -44.342387399278 gnorm: 0.150377853022 xtb: 6.4.1 (79825abcba525fcdf90b791dcacef51065a7a4e7)
C        -0.06744858519582    1.98216054546129    0.37638931465839
C         1.25117802618241    1.34474993015564    0.02175530642473
N         2.31208447176126    2.09124332516937    0.08024780667837
C         3.43493171368542    1.24620991904916   -0.41235222982166
C         3.74987001253460    0.21660786961691    0.71044512825888
N         3.47763938806919   -1.11024691517793    0.02743133498476
C         2.35029260251603   -0.87067833342139   -0.57544399527400
C         2.28678741629695   -1.51226442153998   -1.96550118895379
C         3.56095801031085   -1.14001400143000   -2.83132523913086
N         4.20145015902331    0.20630481352282   -2.86297178243544
C         3.40412665331101    1.38386870411938   -3.23366675811372
C         3.98681822360763    2.57888999514424   -2.44437016155490
C         4.57916559020251    1.85178801580637   -1.23222032440288
C         5.22192109493267    0.57541786501444   -1.86016867209633
N         1.29083875787598   -0.03173655854372   -0.19549265723251
H         0.11346654888181    3.03046759303210    0.58810365858665
H        -0.52797251489019    1.57328444188420    1.27781905600130
H        -0.68636505666725    2.04370707017463   -0.53655275464230
H         2.96616760060197    0.67965305256211   -1.18057681826547
H         3.07666774749528    0.36947834359306    1.56430705337656
H         4.79350152670444    0.14026281661499    1.03315176974148
H         1.32305052707565   -1.29888057686418   -2.44416062169580
H         2.41731255443317   -2.59738470545227   -1.89980847613734
H         3.37175374393310   -1.31715425705704   -3.90139803805574
H         4.39002726362384   -1.81810961897354   -2.59180246348743
H         2.33500236808244    1.27101590510649   -3.02032430513802
H         3.56563175569729    1.51585412496799   -4.30922840492847
H         3.11272496552980    3.12697427406582   -2.08091387216507
H         4.75515074101408    3.14448655002324   -2.98767818279034
H         5.31391702638731    2.49149951201782   -0.73572443870155
H         5.57455751609477   -0.25325808393369   -1.24073071662596
H         6.08458754267992    0.73601033583846   -2.51730975973049
H         0.40144599006968   -0.38759398047576   -0.54625926231578
