33
 energy: -44.334853044963 gnorm: 0.135313255291 xtb: 6.4.1 (79825abcba525fcdf90b791dcacef51065a7a4e7)
C        -0.13664266835396    1.88643344904152    0.57438571797534
C         1.23330440348473    1.37440409276893    0.21119888862677
N         2.31750345819287    2.08903186467629    0.21517393814321
C         3.41508855168621    1.30816745140620   -0.41971180173751
C         3.81728968040861    0.22661314621671    0.62355947133904
N         3.28605529758108   -1.02396769021512   -0.05097634011938
C         2.23424260819498   -0.72362789836180   -0.75471536590006
C         2.26605797538318   -1.50991090416952   -2.06950486861813
C         3.68475122260947   -1.21327735985405   -2.71063697793284
N         4.29699756508926    0.13502339495534   -2.88683442756218
C         3.46738723052994    1.25381826090365   -3.35570647478578
C         3.95721368199377    2.43953690979324   -2.49272570942620
C         4.59555301961642    1.86176393049704   -1.22482934467968
C         5.28576897539936    0.64264181776412   -1.91324617439187
N         1.17418091405392    0.13611280861781   -0.42647172965298
H         0.09602765475059    2.73959369919815    1.20246455532068
H        -0.56297196749412    1.12418578251655    1.22941195139898
H        -0.83514969854726    2.30162687399024   -0.17395320018697
H         2.98207111007812    0.89257675909163   -1.29759320781881
H         3.45444502377923    0.41589041751283    1.64246511999481
H         4.89057098082670    0.07214609030712    0.77634054052624
H         1.35683583755076   -1.26293272068357   -2.63142407456679
H         2.18164455434183   -2.57390829309112   -1.82532807493117
H         3.63598730452255   -1.62077055234002   -3.73230429149851
H         4.42887444739322   -1.79729206330355   -2.15408679381677
H         2.41107602866785    1.07027206521872   -3.12812147250050
H         3.65342823636056    1.37807894658136   -4.42821984594471
H         3.20910557553908    3.21110355462609   -2.28887516039455
H         4.73234280670204    2.96973242899282   -3.06148354767278
H         5.18982621295439    2.55010080280103   -0.61767997652822
H         5.62290360076672   -0.15455829933588   -1.24573447187231
H         6.25843251747898    1.01102613974280   -2.25970882995595
H         0.21658276915320   -0.17827126220086   -0.58414116358776
