33
 energy: -44.344317301141 gnorm: 0.115958108778 xtb: 6.4.1 (79825abcba525fcdf90b791dcacef51065a7a4e7)
C        -0.07986222179439    2.03807221407956    0.31065268024849
C         1.20148263508378    1.28282183722141    0.06860739512543
N         2.28122435470417    2.00410876398344    0.07856835663811
C         3.51170595205122    1.26397595952637   -0.31594479011207
C         3.92244869207060    0.21855596036071    0.76031160071980
N         3.46871371067873   -1.05331220387099    0.06919881324031
C         2.32393176762579   -0.92972495383772   -0.53574995258688
C         2.26883825032341   -1.61573320060972   -1.90479414453882
C         3.46066221345139   -1.13711167962065   -2.83334647902262
N         4.13892329723683    0.19095756063964   -2.83351899286252
C         3.44848702803147    1.40293410234812   -3.29634386989861
C         3.99153433556265    2.56989158249910   -2.43966171065168
C         4.59324940606528    1.87410611777569   -1.21382262477967
C         5.21980546111560    0.63680000660422   -1.93011559208316
N         1.24817051826156   -0.04971551650900   -0.33839274978555
H         0.28223408714795    3.04642725520759    0.47978957189436
H        -0.58385202607054    1.57658065332288    1.16203823120953
H        -0.69664154302789    1.99525412644645   -0.60480276606897
H         3.09980722562857    0.66270117533207   -1.09035008810756
H         3.34385866928995    0.36458087885389    1.68202801948609
H         4.96615907010787    0.17036226105396    1.08815436995310
H         1.38973675198067   -1.39838194162129   -2.52396721767984
H         2.34244027355606   -2.70416222218323   -1.81128812052972
H         3.12909580847774   -1.31226004756179   -3.86853703436333
H         4.20309453082055   -1.91923408610236   -2.62933802637801
H         2.37491627392412    1.21614040830413   -3.17873671124412
H         3.56985797862000    1.69511434112589   -4.34526555457963
H         3.23940416034244    3.31008830582680   -2.15166018384755
H         4.67559533664356    3.25808801403144   -2.95333878791843
H         5.35084345545124    2.44525649277831   -0.67028133654344
H         5.41248425177757   -0.14680227666532   -1.19282189281120
H         6.13247114573593    1.01235988707769   -2.40741410266350
H         0.34547192561218   -0.44276836923037   -0.60548056239777
