33
 energy: -44.341019918843 gnorm: 0.118926960597 xtb: 6.4.1 (79825abcba525fcdf90b791dcacef51065a7a4e7)
C        -0.09740586154781    1.81285760635798    0.44153574109346
C         1.31097870025366    1.38618011074755    0.11713945352266
N         2.31748393592245    2.20598289552735    0.08447689946953
C         3.47032224243379    1.38984609192113   -0.38712328758614
C         3.85740313462311    0.34791180845631    0.70121569808627
N         3.44343000721939   -0.95872942741671    0.05123424898681
C         2.34477822280396   -0.86281826867891   -0.63835101417796
C         2.27036256855657   -1.54040671718980   -2.01067051262178
C         3.56488476605937   -1.25703693236524   -2.87994964945234
N         4.14158362739088    0.11736318618097   -2.83252818790774
C         3.47161158286005    1.33427821570843   -3.31216505702484
C         3.95557620719257    2.50265589259575   -2.42263354283665
C         4.66388768082257    1.86673254339594   -1.22148564569929
C         5.13134950167740    0.49550299833139   -1.80267710417899
N         1.34007568435422    0.05155443569020   -0.28462212593931
H        -0.01917563756408    2.78072691321536    0.92486787180704
H        -0.67416455551196    1.10623849445875    1.04143271365477
H        -0.83227515795175    1.98528940353773   -0.36502683062155
H         2.99372394377624    0.79685355902663   -1.13016394177842
H         3.31340169447071    0.49067989939540    1.64425894106517
H         4.93448093103108    0.41359797774065    0.88755845724743
H         1.51428722310151   -1.01486531194098   -2.60698638276882
H         2.15423564378407   -2.62597794661872   -2.09366453684042
H         3.16902340005992   -1.46898621013932   -3.88523767099827
H         4.41323140385411   -1.90521513736121   -2.62556087385650
H         2.38508131351389    1.30243064509258   -3.17175422910423
H         3.58035859346210    1.51678201592524   -4.38696892496597
H         3.24121385452579    3.20652881812253   -1.98584388223197
H         4.63136400941085    3.07246461120329   -3.07382230038176
H         5.48815000302194    2.38841511720883   -0.72748407454938
H         5.13420315321093   -0.31901008964177   -1.07376013673574
H         6.10215409068453    0.64972740245500   -2.28803370902657
H         0.43349746454413   -0.29434247356213   -0.59952285064503
