33
 energy: -44.349743049978 gnorm: 0.118596532034 xtb: 6.4.1 (79825abcba525fcdf90b791dcacef51065a7a4e7)
C        -0.06738201720976    1.88618760521244    0.43799615385831
C         1.29430510627482    1.31449651952513    0.13831101244798
N         2.31237647169576    2.11905426589835    0.08918103508765
C         3.49962972764773    1.30828157779701   -0.29889048925653
C         3.85136366581757    0.19809589551006    0.73247335160032
N         3.41479475079561   -1.08682955902977    0.05458316580112
C         2.32939534660198   -0.86068419245083   -0.62551162646831
C         2.17669311729642   -1.47517477988192   -2.02086389104935
C         3.49907451924578   -1.13599032439012   -2.82584444022161
N         4.21512797474496    0.17165160408416   -2.85969810647173
C         3.45722156226398    1.33980194549454   -3.32959053633507
C         3.93399502378136    2.52237427155249   -2.45505967898090
C         4.57949618754039    1.89164007005829   -1.21636580411657
C         5.20966648383803    0.61793730317307   -1.86223047710616
N         1.26371205109386   -0.01575141525247   -0.27760867047868
H        -0.32869128744100    2.58348173631167   -0.35067314969902
H        -0.03892998546493    2.41702765524496    1.39153527824631
H        -0.76336172981628    1.03731670281913    0.56184778217387
H         3.06184082498064    0.77411185400188   -1.10753075283867
H         3.44814091637764    0.35621707537787    1.74146291948643
H         4.93338688591633    0.10953054513230    0.87571021763963
H         1.28707417124470   -1.22430800463729   -2.61169406113662
H         2.20041679043749   -2.56954171324458   -1.99563353250364
H         3.26443404394922   -1.16264136711113   -3.90123566595257
H         4.30189770328209   -1.81217904750518   -2.50524438558752
H         2.37450586696801    1.19890123854109   -3.23392860759617
H         3.70259630865481    1.66328084839370   -4.34718059792030
H         3.16960064575149    3.27712485978114   -2.24868949894850
H         4.80242316858369    2.98406302084371   -2.94300842759036
H         5.39268723737258    2.44036047048761   -0.73343220364668
H         5.37397523201977   -0.24716568288254   -1.21465105238927
H         6.08355669653385    0.94474042786218   -2.43784611231057
H         0.36662013755017   -0.28457902327177   -0.68214422890665
