33
 energy: -44.354560794427 gnorm: 0.114586381696 xtb: 6.4.1 (79825abcba525fcdf90b791dcacef51065a7a4e7)
C        -0.10645548457188    1.91251136077153    0.40102896282895
C         1.24147137353503    1.27851486841033    0.17304795012936
N         2.26048357559894    2.08121065497129    0.11397305534496
C         3.45800643654275    1.33760670883218   -0.36614602608305
C         3.80956138801516    0.31497442420441    0.75214406537544
N         3.46301561135670   -1.00674442827154    0.09326148716749
C         2.36480821777076   -0.89573063202296   -0.59476393832196
C         2.25101615050647   -1.50098617010815   -1.99784686782845
C         3.52053603827027   -1.15730195502424   -2.88211649091204
N         4.18257101311859    0.17880920521354   -2.86415271530089
C         3.44986023734669    1.35878179620678   -3.34435668445896
C         4.07354489280858    2.51210622688226   -2.52493330672081
C         4.59925184221396    1.89032415386810   -1.22651921028474
C         5.20908781062386    0.61946902404336   -1.89704277637759
N         1.30128890056269   -0.05351829252045   -0.23388473393155
H         0.14876337468251    2.95702901657621    0.54367228342176
H        -0.46556465585666    1.42326630065971    1.30850756817242
H        -0.82766192746961    1.67142890172764   -0.40025083248791
H         3.00003497696801    0.74898885835229   -1.12422693202265
H         3.24523419888010    0.41448815337734    1.68877776711033
H         4.87596031371979    0.31332113814134    1.00099235308628
H         1.30690718082592   -1.15996874901211   -2.44034170556494
H         2.09657391958943   -2.58399530501739   -1.95227075930078
H         3.08798529101652   -1.22951971928971   -3.89202597518464
H         4.32026453861110   -1.88473751750506   -2.69287464667142
H         2.37081791517596    1.29958752491776   -3.16148734235166
H         3.60377820948366    1.50142538382481   -4.41967011155505
H         3.34173910057303    3.28925575487548   -2.28611378193267
H         4.93889249795845    2.95275107464893   -3.03720624623912
H         5.34796860935255    2.45638697335228   -0.66563177499243
H         5.34487067373113   -0.26237042581084   -1.26563019016554
H         6.15967281518369    0.87400024470127   -2.38017811185413
H         0.40923850965396   -0.52641000815662   -0.37986667403417
