33
 energy: -44.341137403771 gnorm: 0.140323683241 xtb: 6.4.1 (79825abcba525fcdf90b791dcacef51065a7a4e7)
C        -0.09306837203860    1.94506153102028    0.46661134456627
C         1.21896307868100    1.28934010750920    0.12101532686818
N         2.28404829686297    2.03192110271907    0.10195768724441
C         3.42693753090946    1.28051223700318   -0.48686409452844
C         3.87387558481592    0.30289144537258    0.63761106437663
N         3.32640158396753   -1.02109862966576    0.13912990858916
C         2.28410130415532   -0.81938133168655   -0.61232388516600
C         2.29976809471267   -1.59431584165871   -1.93412405331163
C         3.52236126422935   -1.13313857711484   -2.83095950940755
N         4.16210516915417    0.21390773188636   -2.83107593856041
C         3.50028183455862    1.44105869594404   -3.29571195810702
C         4.12838160897656    2.56135116290732   -2.43488100598372
C         4.66497420854409    1.84895224557988   -1.18851986930131
C         5.25268247656705    0.59581794821232   -1.91020397715273
N         1.15920927278200   -0.02618175149637   -0.33649580843692
H        -0.03365663564755    2.95691088960339    0.85278750855153
H        -0.68725062300695    1.27456947573669    1.09049065826915
H        -0.71012579342471    1.91805808960545   -0.44925969122782
H         2.96020985884684    0.74454702321457   -1.27794061528962
H         3.41814182162067    0.47310886480003    1.62198072203688
H         4.95747839858731    0.16373328878594    0.71227583923875
H         1.34231268478851   -1.42107509816201   -2.44078281124563
H         2.45902339961567   -2.66549911694043   -1.77274712243950
H         3.12371153824767   -1.49047353637091   -3.79305245748214
H         4.31970360889595   -1.82769204872301   -2.53705252723329
H         2.40845632462664    1.34517842326858   -3.29447924531562
H         3.75237762883389    1.63124128618714   -4.34481404789700
H         3.32528421677595    3.28656912689428   -2.27478929277158
H         4.93519710190868    3.03988479623191   -3.00538275760388
H         5.26675478311609    2.49891069438106   -0.54741707783376
H         5.46115906622130   -0.22599708751168   -1.22033644371775
H         6.09943891563371    0.89428578287841   -2.53928126343847
H         0.24603388236318   -0.48086878648097   -0.32864654098070
