33
 energy: -44.339703029259 gnorm: 0.111585929097 xtb: 6.4.1 (79825abcba525fcdf90b791dcacef51065a7a4e7)
C        -0.04825086934023    1.89859557480947    0.54514991532473
C         1.18741979435786    1.22658142913471    0.00445711327072
N         2.32999918949163    1.60579728883588    0.49118486242524
C         3.39232321293358    0.73412793908057   -0.08255931814708
C         3.27296966345714   -0.71717215983711    0.46463640538760
N         2.77402166909401   -1.53294616214794   -0.71295632305325
C         1.95589741878772   -0.77375388891065   -1.38083531082619
C         2.09117721129193   -0.76988702679025   -2.90714099772853
C         3.58370364015819   -0.43845717100496   -3.32457539296344
N         4.46759491887467    0.67645963641462   -2.87791806791747
C         3.98620766873600    2.04583351842338   -2.64796646543580
C         4.47899814125203    2.54184764911593   -1.26893709717790
C         4.77574013118404    1.27457208086370   -0.45972961941422
C         5.26544602042649    0.40953582561153   -1.66325566448283
N         1.04385116065043    0.18358253756436   -0.90934048937593
H         0.27879956758513    2.74924910405449    1.13330592978382
H        -0.47079430976442    1.28434717645366    1.34264191231020
H        -0.80647314565473    2.28497389831244   -0.15920763506112
H         3.15757756066416    0.62400458252598   -1.11389962073648
H         2.64910940376490   -0.74070799038190    1.36790563004792
H         4.27473473968903   -1.07581121136529    0.72344065450777
H         1.35743164176038   -0.23951450110100   -3.52662362614008
H         1.99683445075622   -1.81297376943666   -3.22637112608849
H         3.61290670664992   -0.41461035752703   -4.42494407232303
H         4.06408756752642   -1.38017995625553   -3.02973622640450
H         2.91466028297840    2.20515350336912   -2.81434204928363
H         4.49351756034816    2.67616495136937   -3.38665169182251
H         3.74862462280367    3.06936764309126   -0.64860407941316
H         5.41593331430153    3.08150003557757   -1.45958260495040
H         5.53522740276103    1.42594862107465    0.31219191712030
H         5.22692191496492   -0.66982995943279   -1.49519302190310
H         6.32530745874481    0.53698890030242   -1.91278961764180
H         0.39066346526939    0.30130566626176   -1.68405225062562
