33
 energy: -44.343330340833 gnorm: 0.139197838372 xtb: 6.4.1 (79825abcba525fcdf90b791dcacef51065a7a4e7)
C        -0.04382208124927    1.96695905192253    0.42875815788160
C         1.30921442360194    1.33876887457890    0.21544375626092
N         2.34475070380996    2.12177953173805    0.18796337955242
C         3.44477263316837    1.30060306809906   -0.38922216485512
C         3.74327292048184    0.28081805295371    0.74694530515850
N         3.42537984666381   -1.00858915853079    0.01377820083127
C         2.35212933332564   -0.79953790490092   -0.69063179972550
C         2.24338093503542   -1.49463977546813   -2.05185617143545
C         3.56597868043256   -1.16759119531297   -2.86148991491840
N         4.27152451684209    0.14583554856937   -2.89184300815457
C         3.47525761770906    1.31529500916017   -3.28948587715762
C         3.96965103364387    2.52494010779435   -2.46309108455432
C         4.59606063962304    1.85299197424004   -1.23632434688146
C         5.24301640326575    0.57992822193451   -1.86666667298824
N         1.29961967012213    0.04531963219913   -0.30453864868089
H        -0.13926247067452    3.04727229617584    0.44651569662487
H        -0.46328147671736    1.50239199420185    1.32322381299537
H        -0.76556691774354    1.58784774513879   -0.31667313021569
H         2.89615528559494    0.73218157542162   -1.10112911598013
H         3.13666678240289    0.35085114387394    1.65951048919596
H         4.80060518979087    0.19194986522089    1.01765880088859
H         1.28213815547935   -1.32784693739984   -2.55348230004426
H         2.28363468295851   -2.58102717687144   -1.92154720964323
H         3.24821277268837   -1.33561532876570   -3.90217499749486
H         4.31128193826120   -1.94046987210084   -2.63406463424797
H         2.38223130160635    1.23979108715968   -3.25998802949511
H         3.68329467339908    1.42282660915102   -4.35976361895780
H         3.12472211927312    3.12560453224920   -2.11404488052887
H         4.70270515069683    3.17814441527769   -2.95438907954592
H         5.37054687363473    2.47459930137907   -0.77875026764008
H         5.28505704130847   -0.21096921288804   -1.11335831026875
H         6.24052727600518    0.69136703104555   -2.30754216310466
H         0.37213135968855   -0.34507908966128   -0.47200648486209
