33
 energy: -44.337336533326 gnorm: 0.144717253187 xtb: 6.4.1 (79825abcba525fcdf90b791dcacef51065a7a4e7)
C        -0.03929134169745    1.96796401273243    0.54703817632004
C         1.26095283212493    1.36158839193882    0.08605294147867
N         2.33637068368040    2.08937445738988    0.08638590823032
C         3.45277879916245    1.22840792693444   -0.39308434407964
C         3.84831535422509    0.23069941830256    0.73300134033191
N         3.30179383060099   -1.03378164851772    0.09773541538421
C         2.19942346552081   -0.91579249792527   -0.58242681024220
C         2.24862368517400   -1.50861597516155   -1.99454020842002
C         3.62048081739619   -1.24841378380102   -2.74423025548004
N         4.22088659086412    0.11488172451561   -2.81310908686540
C         3.57812818820151    1.29343768374615   -3.41115902568416
C         3.79952921665620    2.48052810086649   -2.44555435090026
C         4.54155035587211    1.89996063697552   -1.23675082548553
C         5.24769418013847    0.68518924055802   -1.91665219738942
N         1.19524315961018    0.02407776372975   -0.30154508670364
H         0.26261686152934    2.87596039374173    1.05781691622871
H        -0.53938286684984    1.31857781170953    1.26817863678006
H        -0.77849072034270    2.12878536737522   -0.25796465463062
H         2.97132324197289    0.75907256618100   -1.21698989477696
H         3.53602511483650    0.53213161189245    1.74159654207378
H         4.91603658560603   -0.00361746920395    0.66817970554753
H         1.39120183869137   -1.14860000439481   -2.57647884523144
H         2.19315626987893   -2.60189770429731   -1.97225131461887
H         3.47300843787854   -1.55910303274222   -3.79015415329755
H         4.46000451937217   -1.76226216697736   -2.25874036122797
H         2.48904053877569    1.21103873117737   -3.50267948701551
H         4.15166654489156    1.40683863407826   -4.33772844028284
H         2.92773912337738    3.05306562634227   -2.11582918365778
H         4.50492465307724    3.19678402314664   -2.88693021999988
H         5.24234459952992    2.53579534794937   -0.68884546933332
H         5.62282781959049   -0.13260233436199   -1.29596600787990
H         5.91670871306403    1.02886242172602   -2.71422730304878
H         0.43851970626034    0.02079762497163   -0.98568693239559
