35
 energy: -44.215724954410 gnorm: 0.101232430320 xtb: 6.4.1 (025e99ea0bd20707e8cccc6e19fe66a0758c6dd1)
C         0.96308035714584    1.56732588998820    0.20948045504886
O         2.37079274882964    1.41928467227498    0.07869434134872
C         2.77497034082905    0.65523754716329   -0.98127714838309
C         1.95185897433303   -0.15057226957045   -1.76920321186215
C         2.51191196073595   -0.82588554808277   -2.85814099446759
C         3.90035402921738   -0.85394607012091   -3.04873158109304
C         4.70410116032374   -0.05864937575607   -2.22112570143893
C         4.15843518015076    0.65192388039080   -1.13890171633752
C         4.54131185646888   -1.54843819636852   -4.23258169746287
C         5.33759464165847   -2.78199279657038   -3.72978654978116
C         4.38190565271243   -3.98219399800296   -3.62572660330297
C         4.88099122623977   -5.12412644292386   -4.50592276768261
C         5.31334353970339   -4.92447022383855   -5.94556391729583
C         6.16581812421585   -3.67614175030002   -6.04950021313469
C         6.49587839701754   -3.06827172915387   -4.69827298816039
H         0.50124076785569    0.78213142731701    0.81694255861781
H         0.43089713216340    1.50089571230750   -0.74464733995618
H         0.92709241017897    2.54445179444055    0.70236543918767
H         0.87011367314423   -0.20698960693629   -1.68486150926772
H         1.80153355772404   -1.44980998463907   -3.39763514021663
H         5.77215319586038   -0.25179239634689   -2.21698701940423
H         4.78544611514435    1.09940650759998   -0.37345467364011
H         5.19228414181475   -0.79028951343360   -4.69154900744476
H         3.82385625793060   -1.81491271383487   -5.02056105460919
H         5.83770992685948   -2.60236771864835   -2.76318696588962
H         3.38926785068419   -3.63453723106173   -3.93217042947905
H         4.36286733021490   -4.38355115179817   -2.60172184497496
H         4.03903886679053   -5.82764425647520   -4.47849491556949
H         5.78117930192878   -5.60996094709389   -4.10732409010599
H         4.39587814238470   -4.86389188391283   -6.54497103728165
H         5.79180430038739   -5.86915018452719   -6.22779225851091
H         5.47236246862995   -3.06528318957499   -6.63758342857606
H         7.07201394809469   -3.77696726380608   -6.66076513247649
H         7.13535030260817   -2.20584290272152   -4.91178533502628
H         7.13854127533249   -3.79356057845899   -4.17730611676946
