35
 energy: -44.220509053986 gnorm: 0.105840583292 xtb: 6.4.1 (025e99ea0bd20707e8cccc6e19fe66a0758c6dd1)
C         0.79868876502422    1.14659944358006    0.26142073903891
O         2.16747220122149    0.78706561916604    0.12784411339100
C         2.70567064006170    0.30795670520553   -1.03468080146138
C         1.99924153769336   -0.25610526802956   -2.09791232807039
C         2.71714567431917   -0.61112511510170   -3.24424012380908
C         4.11740864449425   -0.66944132036333   -3.27155992535019
C         4.79156729177121   -0.05188702747270   -2.20968677158218
C         4.09521039856892    0.38930385959382   -1.07200837038297
C         4.98855510906055   -1.04478469156874   -4.45260545134084
C         5.63484328042454   -2.42901854901230   -4.17922948885303
C         4.57757281240576   -3.32678270245759   -3.51526297971272
C         5.11142565866483   -4.75208113243942   -3.62187880576069
C         5.21798124603969   -5.27860449444071   -5.03989743306046
C         5.27772946142005   -4.13264172559297   -6.02936149744242
C         6.20537089067083   -3.08076625640376   -5.44858603400191
H         0.13489212358885    0.29601426718026    0.07510049679308
H         0.75113136618529    1.96081582937497   -0.46849828110049
H         0.84548562921897    1.54560519608058    1.28005228986022
H         0.91555057265611   -0.29623518386912   -2.03103322853421
H         2.13285380149174   -1.15217635972920   -3.98642586451709
H         5.87594442341587   -0.00575023598186   -2.21704454154391
H         4.58014786624728    0.78262227361121   -0.18351027260338
H         5.80783372043885   -0.32835956142008   -4.60984068000468
H         4.42074497184531   -0.95066347575617   -5.38823118662017
H         6.44300554019812   -2.26608226612822   -3.44641248881456
H         3.69430723339202   -3.33732175956307   -4.16320873273632
H         4.41324871829417   -3.05770643708657   -2.46139803409709
H         4.57897282875502   -5.46781558162694   -2.98251071207809
H         6.11862288016718   -4.71755226161569   -3.18642943052030
H         4.36513125186636   -5.92106422192607   -5.29405048343577
H         6.15424055274661   -5.83382742494803   -5.16695558253540
H         4.29274073462242   -3.65888868534435   -6.10165300214329
H         5.73924898184777   -4.56623156086592   -6.92602255140845
H         6.35128069301397   -2.30957178750434   -6.21164877237281
H         7.24751011107213   -3.40005103335423   -5.29868924907565
