35
 energy: -44.224035670995 gnorm: 0.091438041174 xtb: 6.4.1 (025e99ea0bd20707e8cccc6e19fe66a0758c6dd1)
C         0.92749245982515    1.10746531232943    0.53155835532169
O         2.25875628205144    1.22218532191210    0.04653122036583
C         2.85919962863836    0.54120244644338   -0.97640434991199
C         2.13052488708492   -0.35337438888400   -1.76153787370365
C         2.78602453900397   -0.95824240051171   -2.83854657338100
C         4.07356856300922   -0.57357786808235   -3.23747903266006
C         4.70698244038889    0.46528539011051   -2.54250584045894
C         4.11953316381947    0.97937609532504   -1.37439260276561
C         4.67134313284516   -1.23492488033536   -4.46219655724541
C         5.25702021191608   -2.61393833889152   -4.05743685435526
C         4.14449050794662   -3.66951304143545   -3.94477567573838
C         4.78500169961975   -5.05422369526285   -3.95755164025426
C         5.37477300715658   -5.26550161967531   -5.33845323448756
C         5.99946596306200   -4.03510775486789   -5.96433604889656
C         6.45075045215983   -3.00878021328160   -4.94098134632581
H         0.70184106152574    0.12939379281758    0.96892993826412
H         0.20479686386058    1.31459282049632   -0.26392958832246
H         0.91256527687568    1.88698356145904    1.30041090783396
H         1.13582363963370   -0.66944156165908   -1.45964336620698
H         2.28264015983822   -1.76764765639939   -3.36432257479433
H         5.69317182101126    0.75569996594416   -2.89056671165012
H         4.60336982595510    1.75576753130791   -0.78923365123176
H         5.49331720424618   -0.64346305351130   -4.89084192818864
H         3.89609675889850   -1.40369372384829   -5.22191545693242
H         5.72583691334234   -2.68947611896356   -3.06184649418733
H         3.53291907186231   -3.59487400755446   -4.85059698566597
H         3.57646747788116   -3.56112459700577   -3.00902060680924
H         3.97940841891625   -5.79383591549072   -3.86499567700342
H         5.41217335502185   -5.20362719595931   -3.06896346163156
H         4.61525879111661   -5.73261223289092   -5.97849012165054
H         6.19665831689417   -5.99038038084344   -5.34573911384773
H         5.27313232259128   -3.63493312932043   -6.67999693736243
H         6.88226513834178   -4.39129275070108   -6.51096144410282
H         6.94773705937853   -2.14396970035220   -5.39198290804192
H         7.28888585869209   -3.39360001037130   -4.34105740708471
