35
 energy: -44.207299659853 gnorm: 0.102274198978 xtb: 6.4.1 (025e99ea0bd20707e8cccc6e19fe66a0758c6dd1)
C         1.44922762430631    0.49372270853226    0.69914889021998
O         2.47328484179539    1.07408459611259   -0.09782179522400
C         2.69282671788383    0.51331508975530   -1.32583075224188
C         3.89454086126055    0.81970877224582   -1.96588956540102
C         4.26265867599208    0.20820083171580   -3.16840366762432
C         3.37938483388613   -0.72171626188543   -3.73405819554536
C         2.09694855874515   -0.93929322817573   -3.21304455634808
C         1.81444680954483   -0.35696008130244   -1.96606608167862
C         3.82682022474441   -1.47660595702954   -4.96880126239845
C         4.92726178277527   -2.56731805310937   -4.87991000460210
C         5.88072856465554   -2.48115556270631   -3.67652729613581
C         7.08913501815039   -3.40057023324906   -3.82576505105370
C         6.61405537254123   -4.64015827747085   -4.55862150280775
C         5.18704555926037   -5.00569732652228   -4.20384855369297
C         4.28923960634508   -3.96498087811343   -4.84814235436499
H         1.66685761501866    0.42669691250252    1.77012091797666
H         1.38920950005079   -0.52282214116407    0.29786819363711
H         0.44512688396712    0.92698223888941    0.75458937729190
H         4.61861062020903    1.51965268866429   -1.55812635988793
H         5.22673329934246    0.47793896475800   -3.59592508483604
H         1.35460235551873   -1.59451909270344   -3.65763163262250
H         0.86931355470789   -0.69810729395545   -1.55419924591273
H         4.13662729051849   -0.67852803487679   -5.65894366597959
H         2.92483344560718   -1.83586838921945   -5.48262323866934
H         5.45281479474852   -2.42161318764363   -5.83869013731304
H         5.24469531264406   -2.94433540785581   -2.91427472311695
H         6.14011991782421   -1.46521257495153   -3.34394387397073
H         7.45277915240978   -3.61310622143996   -2.81227367342727
H         7.87638178156954   -2.90753977336196   -4.41093010516594
H         7.05472419331537   -5.62737726262543   -4.36911938701302
H         6.70322443379770   -4.46116452687538   -5.63612225924417
H         5.19658560444170   -4.97252345260732   -3.10900642962806
H         5.01300078168286   -6.05319380919338   -4.48216669916852
H         3.31933490974154   -3.92800479995507   -4.34196751565625
H         4.05862576891452   -4.26996209023936   -5.87977682748004
