35
 energy: -44.213061872705 gnorm: 0.100220590187 xtb: 6.4.1 (025e99ea0bd20707e8cccc6e19fe66a0758c6dd1)
C         1.61529701872237    2.09482370002090    0.44948878811075
O         2.61901254158112    1.08932093033387    0.40264100072087
C         2.84346911893255    0.49697339125591   -0.80955152936538
C         1.92474052296278   -0.17735750572259   -1.61508542963023
C         2.43981025985536   -0.83547716070706   -2.73627878510097
C         3.81072307116985   -0.79330869837139   -3.02559421023596
C         4.71409994273893   -0.11988553510987   -2.19261808232471
C         4.21742533070359    0.50316220656201   -1.03546627593305
C         4.26539620349849   -1.36641184035843   -4.35204529058260
C         5.02842756827169   -2.69970401373031   -4.13149757955517
C         4.26532415460077   -4.02379521802884   -3.96088547256471
C         4.25904692050423   -4.87597442981175   -5.22642590667147
C         5.66712070702987   -5.35590297877743   -5.52028738463753
C         6.66234571969420   -4.23362243090217   -5.30615379181670
C         5.96401494242696   -2.88614761910672   -5.33626225093174
H         1.97462806383488    2.73553237192975    1.26140624541961
H         0.74414390840212    1.53365900946505    0.80187813807740
H         1.44222225364928    2.58735249823086   -0.51304239474726
H         0.86847370112336   -0.31560144162366   -1.40140730409812
H         1.78287874578796   -1.40157188773235   -3.39426879579039
H         5.76507565907197    0.01974082166857   -2.42502078573496
H         4.72019194086966    1.20118569922338   -0.37268310523366
H         4.91021628602248   -0.61990325301495   -4.83798491346070
H         3.35740545476879   -1.50140008053564   -4.95536415282262
H         5.70176139882538   -2.58426403048218   -3.26547772731136
H         3.22068390317663   -3.82966592645037   -3.69415824815650
H         4.70296976913340   -4.69946155561785   -3.21123416660339
H         3.81264203830978   -4.39010699340900   -6.10348285471728
H         3.68968938460713   -5.76347135174216   -4.92075311929087
H         5.71358227506917   -5.72635778318580   -6.55242397779130
H         5.87683319158369   -6.27931732515077   -4.96863134792295
H         7.54420827726890   -4.23562837097147   -5.95591159403088
H         7.04817041672444   -4.24120411559782   -4.27849466550631
H         5.23967445112525   -2.92205888598785   -6.15622356519821
H         6.62636465051248   -2.00962734224606   -5.39517776925972
