35
 energy: -44.221868350477 gnorm: 0.102945621239 xtb: 6.4.1 (025e99ea0bd20707e8cccc6e19fe66a0758c6dd1)
C         1.01637857356437    1.40068418386691    0.44240949753789
O         2.39736767643771    1.34921999728432    0.10939913313586
C         2.96770362539755    0.64731649105920   -0.91662008697203
C         2.18605077577286   -0.19051293176928   -1.71331947926889
C         2.74333711499937   -0.78018038320934   -2.85227385765744
C         4.11909231620496   -0.65735207171884   -3.09121812081319
C         4.90972558198600   -0.00190484993829   -2.13794705530188
C         4.35587393190514    0.65295914732014   -1.02516857819434
C         4.66016260150269   -1.28336715738020   -4.36007405453615
C         5.45010641951653   -2.59458591828363   -4.10469140768760
C         4.52535148643383   -3.74839100542411   -3.68253626436270
C         3.93987251710734   -4.64834103865592   -4.76657764517944
C         5.04094833337939   -5.22111066916675   -5.63774052628237
C         6.34414599168210   -4.49503824063439   -5.37253430012986
C         6.10194079022128   -2.99787708691255   -5.43661147024370
H         1.03626484114848    2.00374200085318    1.35606269327889
H         0.59289450474350    0.41581910356367    0.66307624740372
H         0.44139571701155    1.87106575104848   -0.36204165799621
H         1.10712434235920   -0.27490022053485   -1.61706013788791
H         2.27586037379894   -1.51075506666855   -3.51007263652657
H         5.95492310958691    0.19167830392806   -2.35736487951279
H         4.99505204417207    1.27818377303479   -0.40885852275096
H         5.26310427425724   -0.62906973503404   -5.00626407113499
H         3.81187397054106   -1.58249518719525   -4.99062261985197
H         6.23517360129745   -2.43308341966370   -3.34687765618332
H         3.71999460060607   -3.47714088258071   -2.99121397599435
H         5.11179019385991   -4.46696151185258   -3.09111269730756
H         3.17370793725071   -4.13716655099131   -5.36345774556914
H         3.45601509297128   -5.44744217771625   -4.18988534832300
H         4.74267013238244   -5.27299150892485   -6.69274757808122
H         5.26105787118113   -6.26248249890748   -5.37679174174290
H         6.99973182619868   -4.80621660106880   -6.19305001493174
H         6.82738046750648   -4.89195902367825   -4.47034818223530
H         5.48497747600667   -2.60933512068756   -6.25312033805378
H         7.08518978487020   -2.50594939272045   -5.39544680032320
