35
 energy: -44.228369714864 gnorm: 0.078582368007 xtb: 6.4.1 (025e99ea0bd20707e8cccc6e19fe66a0758c6dd1)
C         1.07782846994306    1.12331922955845    0.61685193742481
O         2.28746589156104    1.51166005741061   -0.02083457418233
C         2.74394481629802    0.74058962109182   -1.05415178051826
C         2.02408306509240   -0.21447769227988   -1.77339772275520
C         2.62105422484068   -0.92021520752019   -2.82270836767126
C         3.95613912505480   -0.66693237649406   -3.16662641568629
C         4.68813473605071    0.29658138160153   -2.46004208515963
C         4.04518699539938    1.03523598217469   -1.45262854942495
C         4.68159776743625   -1.26375091520507   -4.35497178024524
C         5.26022597521581   -2.66236965991126   -4.01207066704543
C         4.21181760455936   -3.78141745214950   -3.89707173378448
C         4.84083695758067   -5.15389542697856   -4.11725407849899
C         5.47190530746686   -5.30343639154700   -5.48792836692979
C         5.95792544699233   -3.97868459516517   -6.03988556630897
C         6.42869347857293   -3.05841908636620   -4.92824281276522
H         0.92749705090919    0.06344779482202    0.38683158312863
H         0.19115003476166    1.71177633123205    0.36090000512823
H         1.11824044489371    1.21641958493207    1.70712940793193
H         1.00031189301318   -0.46390933503683   -1.50854726825505
H         2.01888954079996   -1.65849034207141   -3.34932076319826
H         5.74064494923276    0.34856684192690   -2.71999642023748
H         4.62290191161022    1.66604326857743   -0.78358428808627
H         5.58544204130542   -0.65693421822958   -4.51003419958598
H         4.18130749267636   -1.28056573926131   -5.33277010216472
H         5.66965942949429   -2.56272743912634   -2.99269296675685
H         3.36877668939039   -3.73997234915417   -4.59540343604758
H         3.82969086986784   -3.67391787383053   -2.87117760409455
H         4.14582639781789   -5.99585626535682   -4.00484570060204
H         5.57304975181153   -5.33507922082657   -3.31957525913864
H         4.72478468803181   -5.63886785451156   -6.21867996613155
H         6.24461839656347   -6.07253351900521   -5.37656475340667
H         5.21185514891176   -3.47132076190765   -6.66103920743312
H         6.77351325247813   -4.18037693583900   -6.74638269143113
H         6.97454770063907   -2.19975042363497   -5.33200835608214
H         7.16795645806901   -3.60292918689597   -4.32205392647042
