35
 energy: -44.219481239629 gnorm: 0.092477338822 xtb: 6.4.1 (025e99ea0bd20707e8cccc6e19fe66a0758c6dd1)
C         0.58585599727088    1.27034966642593   -0.14074012256692
O         1.92625581109033    0.80785936958748   -0.04020934027709
C         2.68331215230599    0.51266887270414   -1.14038902627071
C         2.19587053492036    0.41541922363156   -2.44446433934856
C         2.96497980122832   -0.15564514002464   -3.46321321651805
C         4.20152754930668   -0.75236473444798   -3.18079699622128
C         4.63648714251709   -0.73011281787094   -1.84897390324659
C         3.92516373724736   -0.04576014866017   -0.84919648510623
C         4.85233482911557   -1.52490583532132   -4.30963598208568
C         5.95210259246083   -2.55305045555386   -3.93286592562264
C         5.39382059958917   -3.66497170676790   -3.02920383093709
C         5.23198132369824   -4.96045242746544   -3.81874746915158
C         4.45886268153204   -4.58118555274270   -5.06686684369417
C         5.31639255965680   -3.83259576522659   -6.06691458692159
C         6.41903512270320   -3.17127090008890   -5.26001337715785
H        -0.06695637910023    0.61452030823239   -0.72602655418025
H         0.63782567289679    2.23485565792279   -0.65554022606921
H         0.20414693832710    1.36920355733673    0.88079395498745
H         1.16108683951520    0.66794089581180   -2.65876515385068
H         2.45507087709456   -0.27707008397994   -4.41726875815848
H         5.62171153545471   -1.11006673471894   -1.59792727520689
H         4.41666755315777    0.03873129953152    0.11546810697266
H         5.37858417925192   -0.73360359097408   -4.86290599720414
H         4.01858637580468   -1.97349093067494   -4.86667960825734
H         6.74726572995193   -2.06407848972269   -3.34522894603521
H         4.39950348403260   -3.28849719119442   -2.76519007141624
H         6.03902092452705   -3.85172342331025   -2.15806887986876
H         4.58092259980353   -5.69158208155262   -3.32261710009362
H         6.20681557494334   -5.42090062022440   -4.02596785172485
H         3.62001363065332   -3.92194447240102   -4.80911724700456
H         4.03316150391614   -5.42098973746847   -5.62767447877488
H         4.82883557192806   -3.09951192740731   -6.71864080734768
H         5.79291830774356   -4.51565412413381   -6.78200615308886
H         6.88548336803860   -2.36800100446866   -5.83921872108668
H         7.12755888153635   -4.00209274765755   -5.12512412332856
