35
 energy: -44.217671061596 gnorm: 0.103403878238 xtb: 6.4.1 (025e99ea0bd20707e8cccc6e19fe66a0758c6dd1)
C         0.88658107480822    0.99208230319486    0.26949716779570
O         2.30520279455493    1.00820311750098    0.18045838923118
C         2.91576028499784    0.40495127800030   -0.88442367828195
C         2.32963411165022   -0.61483792500539   -1.63552640518192
C         3.01362674153250   -1.06900603739624   -2.76750618556470
C         4.15383174727561   -0.43061828039074   -3.27473110657664
C         4.70471723476651    0.61920675818528   -2.52785073280011
C         4.08753853964556    1.01209475810136   -1.32843258143564
C         4.87801260052459   -1.15225671233160   -4.39251792477751
C         5.35880623823104   -2.56954557801790   -3.98184054516002
C         4.27916290359262   -3.63983928416870   -3.75055181694293
C         4.84335736248414   -5.03929033532126   -3.97652254186611
C         5.09389925088629   -5.23109550783220   -5.45969390969349
C         5.54324262136613   -3.89887410585405   -6.02459772591402
C         6.35443281664258   -3.08464087241212   -5.03300533446231
H         0.58335291315382    1.53975377086248    1.16779834192992
H         0.31949256820658    0.05731856760612    0.21831925272302
H         0.53132707501783    1.50592724617011   -0.62981575734767
H         1.34325827198637   -0.96252441780374   -1.34116928228522
H         2.56591851132415   -1.84448106999736   -3.38651257423368
H         5.65738111513988    1.08572979550739   -2.75772953079046
H         4.67141048496239    1.72538448487905   -0.75432119202302
H         5.72986027064005   -0.53614850515591   -4.71496410873712
H         4.22504877884343   -1.24501530782471   -5.27098064623592
H         5.84549589498480   -2.37949813983395   -3.01039298131153
H         3.40724514979883   -3.53795495571840   -4.40590047369019
H         3.88587173642931   -3.57337218771018   -2.72539819617046
H         4.21448576493029   -5.88409734947806   -3.66766173676857
H         5.80643464885604   -5.05240822455627   -3.44967844379644
H         4.16817901269493   -5.37500552006414   -6.03156219468637
H         5.82349853627714   -6.04061856050288   -5.57525806627326
H         4.73019987891352   -3.29582591837148   -6.44312511878576
H         6.27737410314713   -4.07005931531701   -6.82256266891402
H         6.87036038441634   -2.23596786536616   -5.49329675544508
H         7.04267261829436   -3.71325550032475   -4.44850931616291
