35
 energy: -44.217905214355 gnorm: 0.091146839738 xtb: 6.4.1 (025e99ea0bd20707e8cccc6e19fe66a0758c6dd1)
C         0.78407197035509    1.08491174976261    0.08943263377876
O         2.11473371175839    0.59565617244366    0.19260090357620
C         2.76079368870490    0.28006473138149   -0.97087476120181
C         2.19471565472661    0.54474001817898   -2.21874169896440
C         2.83755125182426    0.03082406728458   -3.34929273109559
C         4.13351030107580   -0.50277885892447   -3.32396320129988
C         4.70583054381470   -0.67976592749521   -2.05724979379947
C         3.98286986844687   -0.38235602572654   -0.88988110526580
C         4.65174991069671   -1.13531458805055   -4.59909988978548
C         5.61014734938236   -2.31190695868186   -4.27409078020722
C         4.96845737677968   -3.33653271189426   -3.32381246207890
C         5.67164793218009   -4.67004254859177   -3.55858036107963
C         5.13937745799360   -5.20947471815703   -4.87199531755436
C         4.99376406078774   -4.12268670922774   -5.91771431105441
C         6.00952953091861   -3.05295087477456   -5.55973873056297
H         0.25832889063477    0.86719006112370    1.02486186057256
H         0.24359593548174    0.51401072294446   -0.67211150557029
H         1.02312341786610    2.12594802529495   -0.15161435520577
H         1.26412379363728    1.05430157111977   -2.45286802465015
H         2.27602998695863   -0.03420932632106   -4.27958173560804
H         5.74332145977670   -0.94681098970429   -1.88301999484439
H         4.44453892756883   -0.46938784161999    0.08918974096253
H         5.22733926645744   -0.55651652779840   -5.33591398457871
H         3.77350057959294   -1.54766856789025   -5.11417753574852
H         6.54245618091694   -1.86845389792078   -3.88570328203751
H         3.89458505759205   -3.42763158821986   -3.52028660430945
H         5.06809200949067   -2.98716470766850   -2.28552025634404
H         5.50962142891407   -5.40655767116165   -2.76116813204434
H         6.74016870624970   -4.41919094081696   -3.58290052050473
H         4.27177224910750   -5.86529280893501   -4.72412638877607
H         5.93661223740971   -5.88679431195072   -5.19857247477774
H         3.98620636896826   -3.69292146803992   -5.91735200462237
H         5.16679251891437   -4.53298796787394   -6.92106643669162
H         6.06168807215102   -2.35678897372165   -6.40290740604459
H         7.02457472413216   -3.46090577735599   -5.44259769121434
