35
 energy: -44.223826560182 gnorm: 0.100334906334 xtb: 6.4.1 (025e99ea0bd20707e8cccc6e19fe66a0758c6dd1)
C         0.80603301882182    0.84042630094094    0.25661607570451
O         2.13268108293068    1.21783710253671   -0.08724637168430
C         2.73875306948831    0.54386431988565   -1.11150440548099
C         1.99005402237429    0.06062932770841   -2.18556349744493
C         2.74076705830222   -0.53489481248692   -3.20402988363518
C         4.12838537997205   -0.72211254677749   -3.13808729829489
C         4.85250701281339   -0.28597180361622   -2.02056017546270
C         4.12814135550854    0.45947150870127   -1.07531781965275
C         4.98421768981809   -1.17534241539763   -4.30289675462077
C         5.75257040770058   -2.50237242495355   -4.06383269091715
C         4.87449321898275   -3.55692941418006   -3.36989981127401
C         5.37366328749935   -4.93245403971708   -3.80187510450796
C         4.91790516291049   -5.16649888523763   -5.22906300819767
C         5.09360797761273   -3.89419147367258   -6.03292992620496
C         6.18320579291880   -3.01438690741597   -5.44728388265528
H         0.49828417469963    1.56645514456740    1.01622724292446
H         0.65197334864899   -0.15656141518736    0.68120165260832
H         0.24201371373145    0.92274234340129   -0.67832352847907
H         0.90419653724586    0.09701395280305   -2.19324480187492
H         2.20705339193875   -0.93086259695476   -4.06619711735020
H         5.90806334952379   -0.50805631865646   -1.89999576907826
H         4.53655641417331    0.93813829882939   -0.19023713006364
H         5.66869640542902   -0.34172930047226   -4.51686728648944
H         4.26439894823020   -1.32715925912689   -5.11866344937848
H         6.66395378400582   -2.26273083376580   -3.49055486187335
H         3.82724619558557   -3.41033602325568   -3.65605868535635
H         4.85353114787931   -3.40343693062972   -2.28084682135923
H         4.95534228466085   -5.62610118403181   -3.06131143105135
H         6.45342375663107   -4.79269553032084   -3.66102223078366
H         3.93243402935141   -5.64388086704854   -5.30425924999377
H         5.56481004877107   -5.96861267736904   -5.60205804585580
H         4.14794428166951   -3.34291488097624   -5.99188009157284
H         5.25594319027030   -4.18424578107751   -7.07912170370917
H         6.37777999874944   -2.15148695949550   -6.09214036280375
H         7.10985447606177   -3.60640104913566   -5.41112529312444
