35
 energy: -44.221906681668 gnorm: 0.086852626144 xtb: 6.4.1 (025e99ea0bd20707e8cccc6e19fe66a0758c6dd1)
C         0.91783572931817    1.50526027383630    0.38675590626062
O         2.32830130375444    1.41172649389520    0.23671034781201
C         2.78960103499768    0.67867377394232   -0.82182794683056
C         2.02232425967254    0.05482989759493   -1.80659918533238
C         2.63429696265807   -0.63495793145342   -2.85787221546503
C         4.02265771715135   -0.65754568305656   -3.04977768391320
C         4.80487542183772    0.02032574547190   -2.10528654056389
C         4.16768457570811    0.64027023883747   -1.01738439461636
C         4.62620049550031   -1.33476516974968   -4.26293768357465
C         5.17269824108737   -2.77446689401068   -4.07025836873594
C         4.17233486398082   -3.94233847355892   -4.07164120660353
C         4.92448878861373   -5.26846906085473   -4.13066273140967
C         5.88505330096429   -5.35260911382686   -5.30095929076868
C         5.86631104281661   -4.11813546168168   -6.17934598206993
C         6.10323629921968   -2.91456608506655   -5.28517153643112
H         0.69084199640822    2.25709323445246    1.14968277032383
H         0.55626462094186    0.47952914897850    0.50977539324142
H         0.49691605738814    1.88293319130408   -0.55089838302892
H         0.93689678662701    0.03978879210486   -1.76087957901415
H         1.98457984826052   -1.14471329307948   -3.56709026135128
H         5.86543912203650    0.21456509496613   -2.22991475047731
H         4.80888514317438    1.22442096752627   -0.36399145249301
H         5.44310677082457   -0.68436753518130   -4.60768741004362
H         3.78842841339564   -1.39431952051741   -4.97093054330922
H         5.64282324885686   -2.85403277855755   -3.07559914875212
H         3.60977083946759   -3.80366795646515   -5.00136969174193
H         3.54542643145882   -3.93818656098638   -3.16775828106439
H         4.22965509261079   -6.09489659975660   -4.32763235604519
H         5.51070481092814   -5.45818163402475   -3.22202938606096
H         5.78789762135676   -6.25299955559685   -5.92108767434405
H         6.86779104518373   -5.49728903209931   -4.83804243859854
H         4.96933167037988   -4.15009000926777   -6.80726134866579
H         6.68345330707185   -4.13622479220519   -6.91211658320080
H         6.09395852955817   -1.99511361613135   -5.87915503957947
H         7.09421392283144   -2.94886171810874   -4.80846079536477
