35
 energy: -44.220582692049 gnorm: 0.090100827342 xtb: 6.4.1 (025e99ea0bd20707e8cccc6e19fe66a0758c6dd1)
C         1.54118270648810    2.08079590087429    0.44111147054840
O         2.37699536703578    0.93415898625167    0.52664722856952
C         2.91745531953682    0.51363342435906   -0.65729887177982
C         2.06234501337290   -0.21292479128682   -1.48709931768506
C         2.39845107596835   -0.78150754795730   -2.71967353589740
C         3.73373536834792   -0.78173019870642   -3.14617009228991
C         4.55098158787178   -0.04540115379829   -2.27820356987777
C         4.24753467141830    0.58955176506656   -1.06221459337804
C         4.30901989296874   -1.47111420960492   -4.36618840672681
C         5.19446711493488   -2.73332625222137   -4.18918524557313
C         4.28899385567683   -3.94199819108055   -3.89955937287561
C         4.20805237104918   -4.83626187766531   -5.13308372923986
C         5.57394384033014   -5.35032087688301   -5.54471658434620
C         6.68863212003835   -4.33641966857125   -5.38561276074684
C         6.16240335787518   -2.91266572549448   -5.36921898715736
H         2.00745027177265    2.87642696204064    1.03136745734918
H         0.57130621784644    1.74268681989220    0.81928292676594
H         1.42166898629185    2.39808250440623   -0.60006644496279
H         1.03324008357721   -0.32918467551846   -1.15862402371063
H         1.59082987680845   -1.21478976939238   -3.30702999485664
H         5.58049243860428    0.07253784253549   -2.60108790931216
H         4.93538215523694    1.22668766132128   -0.51429465413708
H         4.81462297403469   -0.67680832237363   -4.93421041318616
H         3.46622832108655   -1.65948128964344   -5.04507195451100
H         5.83837323744514   -2.56998881579010   -3.30861667884197
H         3.33287308240647   -3.56882398165671   -3.51657513658236
H         4.72850968991291   -4.59282705470614   -3.12931046069287
H         3.82707738177805   -4.17438630932513   -5.92134267508986
H         3.53730119685045   -5.69136173939965   -4.97767545756850
H         5.39644165446950   -5.71886589111768   -6.56322968314825
H         5.84943406463873   -6.26351044316220   -5.00509846344616
H         7.43756100409717   -4.45874033719870   -6.17555831294438
H         7.14456726718583   -4.46753143541059   -4.39569644935226
H         5.63562878834101   -2.74105223270210   -6.31333374690692
H         6.96045264737937   -2.16957301882396   -5.22294346377393
