35
 energy: -44.215896736546 gnorm: 0.076408726549 xtb: 6.4.1 (025e99ea0bd20707e8cccc6e19fe66a0758c6dd1)
C         1.62041253931002    0.88789654072522    0.70873976248658
O         2.85983485681193    1.09578823476805    0.04444407808232
C         2.95760056911797    0.40580894219415   -1.13243210232023
C         3.82530300467596    1.01701689442518   -2.03862557391435
C         4.08676444583635    0.42177785610740   -3.27669716706554
C         3.41701946943171   -0.76394235531169   -3.60895125116898
C         2.39221097081739   -1.24133581596379   -2.78112228613413
C         2.20036770547240   -0.70434755267801   -1.49709961096253
C         3.59170836379793   -1.56558213102543   -4.88233445836060
C         4.77529652821749   -2.56834804932650   -4.83644611529802
C         5.29980240285494   -2.77434830008410   -3.40567348798472
C         6.55379799301956   -3.64325922633827   -3.38750033218443
C         6.63093262745975   -4.59560819156024   -4.56497197254819
C         5.25847351730081   -5.05264611221784   -5.01587326799526
C         4.56512604977731   -3.85794734764770   -5.64533725288021
H         0.85937127617124    0.95518318993087   -0.07555932815270
H         1.46695937345398    1.67656607249177    1.45200573178054
H         1.72325425161939   -0.09184111201710    1.18680198332877
H         4.10483942098040    2.03906679832603   -1.79832840442104
H         4.66062384865081    1.09789622424484   -3.90798350953539
H         1.72271742084968   -1.96902276177091   -3.22867853823220
H         1.33879406491350   -0.93685634060713   -0.87829179461540
H         3.81645878531984   -0.88848593704558   -5.71913390652570
H         2.66310859117840   -2.11253842546840   -5.09494664904271
H         5.59763431423146   -2.00594893075068   -5.30990468799174
H         4.54744282089547   -3.16687190757867   -2.71286534364313
H         5.63274139621667   -1.78705914857497   -3.05290228213127
H         6.58944317930246   -4.24537158218091   -2.47056876084248
H         7.50217993771315   -3.09470034003038   -3.45756799006135
H         7.26037697960370   -5.42590559506602   -4.21985255085834
H         7.21071559873358   -4.20202096624370   -5.40755049468227
H         4.66774637889164   -5.46921983896348   -4.19284315145563
H         5.37164800158788   -5.79783691273474   -5.81392318123750
H         3.50821061165395   -4.02437708913144   -5.87669458461822
H         5.04292046310740   -3.73262159862505   -6.62843029193121
