35
 energy: -44.216976052507 gnorm: 0.109807629328 xtb: 6.4.1 (025e99ea0bd20707e8cccc6e19fe66a0758c6dd1)
C         1.00661296016908    0.70556972143744    0.53974623437298
O         2.17470789817677    1.34181706011273    0.03832931943074
C         2.68625276999221    0.83322393200920   -1.12370422043591
C         2.05841160736249   -0.03049812881194   -2.02229696842747
C         2.73233389572737   -0.66621058287257   -3.06976595491699
C         4.11922613940241   -0.51931134460772   -3.21059938269552
C         4.79723344335608    0.39982631586321   -2.39885445513671
C         4.04658131443422    0.99652409454400   -1.37204015768304
C         4.82158023859027   -1.24623946847883   -4.33883764062262
C         5.36614689226803   -2.63803739777923   -3.92066080105574
C         4.33817700209381   -3.74064701311354   -3.61704463383433
C         4.89998002109955   -5.12275327350107   -3.93642067900398
C         5.26202572494777   -5.32209596667405   -5.39537344312898
C         5.70530208807481   -4.02865060722311   -6.04832429719816
C         6.32544193059843   -3.08298447023201   -5.03570250453204
H         1.07696219533451   -0.38472495784357    0.46801859354143
H         0.16486735186790    1.12701208990855   -0.01868233285319
H         1.13698091793661    1.11341557749387    1.54755163611990
H         0.97761579177562   -0.13860368407907   -1.99654958586384
H         2.10830246096848   -1.25056207059175   -3.74362885860619
H         5.87768415825525    0.46995252846971   -2.47478246269599
H         4.60582299835219    1.79769782397859   -0.89805493888051
H         5.75125739666776   -0.73474712189062   -4.62742261723715
H         4.05270961511675   -1.39829834548142   -5.10849908657210
H         5.96265912055101   -2.54981766650233   -2.99703443451072
H         3.45451732959700   -3.58828646880079   -4.24635751256485
H         3.98711112421461   -3.77501061030700   -2.57511965650872
H         4.16944867783871   -5.92654788942244   -3.77890386059611
H         5.77785053183123   -5.23781010514520   -3.28729824458691
H         4.46242751694723   -5.88971628005926   -5.88847715589027
H         6.14525268923889   -5.96741002991589   -5.46228871921832
H         4.93587333547020   -3.50256114425428   -6.62371987208392
H         6.52910911291649   -4.23781406019932   -6.74301422398638
H         6.76801743874713   -2.19243778758398   -5.49324905724656
H         7.10899488659628   -3.61905346919804   -4.47969821908129
