35
 energy: -44.216321421270 gnorm: 0.098425551437 xtb: 6.4.1 (025e99ea0bd20707e8cccc6e19fe66a0758c6dd1)
C         1.61035388948601    0.79208094144637    0.64274288157403
O         2.81619797929505    1.09336613756742   -0.04707060542735
C         3.02026971229919    0.35719759904186   -1.18156507092092
C         3.88858195042290    0.91738616338815   -2.11959060081670
C         4.09287713055054    0.40706971706055   -3.40541075423551
C         3.34806367877619   -0.72467454310949   -3.76498187930147
C         2.48136234700365   -1.31037403993271   -2.83266076033599
C         2.37745025651275   -0.83187790356509   -1.51580154932016
C         3.67204326166021   -1.46544057265410   -5.04597768995709
C         4.78255864691591   -2.51210645234330   -4.76353777715411
C         5.38000764975056   -2.61035407652052   -3.35001206770322
C         6.41056351784017   -3.72761059266077   -3.21759648920491
C         6.64426577133493   -4.53600889910199   -4.47903741263054
C         5.38855500796908   -4.85930662252268   -5.26294347243325
C         4.22117442199974   -3.90352276442572   -5.09572939344735
H         0.85900110259074    0.92716117963799   -0.14215117393506
H         1.44027604804492    1.55876124597400    1.40515132999415
H         1.71369671144085   -0.24902756455015    0.96588234296390
H         4.40062898608794    1.85073873135340   -1.90249578605426
H         4.68056753375740    1.03592941262229   -4.07184048114435
H         1.85399081170994   -2.09933027105030   -3.23516482459369
H         1.57450901324193   -1.29601546776601   -0.95086414963436
H         4.05833497056079   -0.69124062704714   -5.72465176044567
H         2.77369502360555   -1.86544032178276   -5.53550124954983
H         5.53412320989792   -2.21261526516622   -5.51330505033507
H         4.53487734419039   -2.79404086957440   -2.67761577001594
H         5.80974305527169   -1.60989016589383   -3.19369440194908
H         6.08468943323563   -4.38810999231964   -2.40388892494616
H         7.33933810466952   -3.28543708825925   -2.83404075430616
H         7.19216132794698   -5.43692619013546   -4.17430822112705
H         7.37061154571231   -3.96870335751094   -5.07198260655230
H         5.01250629074850   -5.87096772833929   -5.07586069463331
H         5.62460895768229   -4.76579440638040   -6.33090201899004
H         3.55690480846322   -4.19305980119383   -4.27523593955945
H         3.61714564483852   -3.90031136807264   -6.01529716942827
