35
 energy: -44.225372731836 gnorm: 0.095804374152 xtb: 6.4.1 (025e99ea0bd20707e8cccc6e19fe66a0758c6dd1)
C         0.95172440406112    1.55963824246525    0.25855128449411
O         2.33345340533925    1.22677647244707    0.23202987609088
C         2.83951228206284    0.45774323052450   -0.77948352347395
C         2.12404178376932   -0.04861707737759   -1.86547175583973
C         2.74168092287718   -0.61812530378413   -2.98336044175664
C         4.14290190741286   -0.60515546117997   -3.01934730739872
C         4.89198560535038   -0.17346505217260   -1.91664392699110
C         4.21950178447857    0.27255881514458   -0.76655581527636
C         4.83547415546042   -1.15683048587444   -4.24843056649064
C         5.21038092420582   -2.66182340447627   -4.30290424604151
C         3.97314927311166   -3.49996265687450   -4.66544150515300
C         4.26472228593202   -4.94966006300504   -4.28967027931022
C         5.61780259874981   -5.32438079386377   -4.86248421921086
C         6.15870687733377   -4.34039854360957   -5.87985393640033
C         6.39287442726399   -2.98966039813051   -5.22798525413221
H         0.27893317316616    0.69762878908847    0.20262261311733
H         0.68966906131688    2.21040538796728   -0.58158020567578
H         0.82448255443756    2.07035267547805    1.21875233054023
H         1.03838139027100   -0.08988560176621   -1.85509184533492
H         2.22999622608064   -1.11641477887517   -3.80485874970555
H         5.97622911312679   -0.12820561587773   -1.93723732010143
H         4.84303369831508    0.63585246195142    0.04493556278980
H         5.75151746994332   -0.60453605849018   -4.50346159897210
H         4.18243375611071   -0.97002417796132   -5.11174065329765
H         5.42230640656072   -3.08524556319167   -3.30666307066395
H         3.61304382320317   -3.43386991314097   -5.69794267337444
H         3.17025584648541   -3.10812441976921   -4.02367775776065
H         3.46475746265322   -5.49311324886191   -4.80860022922544
H         4.07602107667702   -5.13754798938739   -3.22461411969820
H         5.56262217168282   -6.31125765749975   -5.33969545412858
H         6.36301247744102   -5.39324587076197   -4.06191092319738
H         5.47840030565090   -4.37618827546394   -6.73762596802648
H         7.14455276625313   -4.59751847656355   -6.28850865739620
H         6.46612974980774   -2.27267837515439   -6.05191835479004
H         7.24473357487991   -3.07234449996222   -4.53663490841127
