35
 energy: -44.221709241073 gnorm: 0.088803668287 xtb: 6.4.1 (025e99ea0bd20707e8cccc6e19fe66a0758c6dd1)
C         1.23978583466842   -0.01704193500250    0.48742441405605
O         2.27381479412194    0.75187856923928   -0.11275952226311
C         2.66334730386689    0.35559798473091   -1.36251678783979
C         3.98444672493952    0.67098588252553   -1.68329095420223
C         4.52156331679899    0.22917895190177   -2.89647077003773
C         3.68853579020873   -0.52525757996316   -3.73419040601385
C         2.33874553543177   -0.71857690592055   -3.41149600274789
C         1.75077234641805   -0.24225467960824   -2.22773963818015
C         4.02646146617804   -1.23077867782080   -5.03137718916233
C         4.80766933697450   -2.55043789674193   -4.79317563830022
C         6.29214979273661   -2.27585658232789   -4.50064237926111
C         6.96313332322185   -3.53843674251289   -3.96818219783290
C         6.27840989576616   -4.76969326984870   -4.52900209781470
C         4.86521152656414   -4.93273364162207   -4.00734334446059
C         4.22648635575998   -3.57104787485837   -3.80215370664667
H         0.27247264589734    0.32324444562736    0.10356671628351
H         1.36836868932096    0.08035409858027    1.57000109353102
H         1.42350593280964   -1.07552607352485    0.27561311671775
H         4.72950042330837    1.09144957453515   -1.01353382895920
H         5.49505868506781    0.60118819614470   -3.21093697841060
H         1.79183213980635   -1.30903783590215   -4.13971172052599
H         0.68157104038442   -0.23079987750306   -2.03808221422216
H         4.65716041854655   -0.71043677410310   -5.76667879626214
H         3.10752991287046   -1.58236420823728   -5.51985962521794
H         4.70648792694530   -3.06491462234644   -5.76362462938898
H         6.44990253840973   -1.56212609436256   -3.68467319372034
H         6.79626083682177   -1.87892083714128   -5.39414662302102
H         6.84355962786886   -3.56611453197033   -2.87753585414716
H         8.02433537176487   -3.53289698119771   -4.24938348792329
H         6.92099622016257   -5.64674527929874   -4.37878900167370
H         6.26924197758372   -4.64987685013207   -5.61829440904486
H         4.80271174541204   -5.51133008113704   -3.07933971695842
H         4.27325922105911   -5.50607063712583   -4.73251823014093
H         4.45613103071760   -3.27796025226208   -2.77275665609482
H         3.14431973739734   -3.55549498959001   -3.99999072557638
