35
 energy: -44.226303727183 gnorm: 0.094130623947 xtb: 6.4.1 (025e99ea0bd20707e8cccc6e19fe66a0758c6dd1)
C         1.05898498867459    0.69586431306690    0.44401392776954
O         2.35583060415985    1.16045262730317    0.09326540792486
C         2.86815921269996    0.60933851713096   -1.04886404765378
C         2.17659231985394   -0.22683441076765   -1.92648542833506
C         2.81529547961750   -0.77786125947797   -3.04179726851266
C         4.17078530589378   -0.54485500813169   -3.31242415438085
C         4.85086772275057    0.24906239151341   -2.37935352567373
C         4.22598733164397    0.83078768451621   -1.26356026172263
C         4.89444549499774   -1.15984065775859   -4.49257493983447
C         5.67587632278041   -2.46004818018631   -4.16492815302746
C         4.79993639165916   -3.42961745479341   -3.35417696890071
C         3.86739676445885   -4.27809010577920   -4.21342396661373
C         4.66376212994271   -5.10467332440343   -5.20434280923208
C         6.07890433272671   -4.66877912439108   -5.52560351067208
C         6.17695304016023   -3.15639594224636   -5.43990453258183
H         0.65403255145482    1.47829683132476    1.09412871395513
H         1.10019427668817   -0.20058659909163    1.07064727902377
H         0.36923272602138    0.59247640271128   -0.40011788803520
H         1.21412202080153   -0.58213796607567   -1.56888281990417
H         2.25942519223210   -1.43931623920824   -3.70395934812455
H         5.91852751283338    0.30807067636252   -2.56557135988890
H         4.89729863936109    1.36416717506897   -0.59712195761325
H         5.59616822917604   -0.41888707564164   -4.90218244231589
H         4.17543614543792   -1.50474201974551   -5.24804252519708
H         6.62669084299077   -2.21758295900257   -3.66108533979628
H         4.27228179640755   -2.85452110855644   -2.58544576180443
H         5.44198078473289   -4.16114616239752   -2.84165329988835
H         3.17332504591602   -3.64856003304315   -4.78485174931921
H         3.26964689254940   -4.91305854926904   -3.54651707072746
H         4.19437539176174   -5.18370761663633   -6.19334789314220
H         4.77784940847430   -6.14346738760544   -4.87435985440666
H         6.41149603143835   -4.92687814724407   -6.53685938871128
H         6.77646652905247   -5.17205374562058   -4.84360417539017
H         5.54084170949367   -2.76688107914214   -6.24111353512730
H         7.18326082789563   -2.89051047807674   -5.79643716872807
