35
 energy: -44.223098994270 gnorm: 0.102967675379 xtb: 6.4.1 (025e99ea0bd20707e8cccc6e19fe66a0758c6dd1)
C         0.83454102726002    1.10774556865774    0.35869085389470
O         2.21774093381126    1.24842217165693    0.06264444101565
C         2.81542507683146    0.68508941009285   -1.03101772086689
C         2.05009918580492   -0.14410818863607   -1.85222223464112
C         2.63359206631193   -0.70992236311255   -2.99015158441784
C         4.00596184645428   -0.52470062011879   -3.20735560278406
C         4.82775725638784    0.12595523161213   -2.27744324126820
C         4.19014970473405    0.79811148552422   -1.22125338293201
C         4.72823994844534   -1.15636332570954   -4.37951765045947
C         5.33552285138009   -2.55947762764739   -4.11305212348002
C         4.36489561873298   -3.68226224951245   -3.71069621186650
C         4.94050341643401   -5.08041724560404   -3.91485219308493
C         5.46069428506887   -5.41625546752148   -5.29903856488965
C         5.77896534878035   -4.15321496626073   -6.07316508346343
C         6.32112275268021   -3.04658970241285   -5.18676414385295
H         0.36975847295257    0.11638182960539    0.35530513168891
H         0.15921301026163    1.71286887368766   -0.25429336435418
H         0.80669613891061    1.45831104834925    1.39567411099380
H         0.99270304705765   -0.33037539047222   -1.68582736691534
H         2.00993619681706   -1.37494538449185   -3.58493795558998
H         5.88060811498775    0.36149245752921   -2.39611829246029
H         4.87149559651886    1.34610395460792   -0.57723117768232
H         5.60804238455125   -0.57619281084345   -4.69345261240924
H         4.11623211287341   -1.20035613974280   -5.29065633246119
H         5.86435446112428   -2.33714918203337   -3.17092558764330
H         3.42316524312579   -3.58089332636123   -4.26112430453513
H         4.09973209665185   -3.66331354805427   -2.64328578773920
H         4.16666572239517   -5.78110693527038   -3.57605644975609
H         5.80201580977316   -5.14858226694263   -3.23779638553171
H         4.68236117909699   -5.92606887566994   -5.88126639789978
H         6.36738935381656   -6.03082640916943   -5.33374263241127
H         4.87242865489633   -3.78673419290950   -6.56687943291308
H         6.56521860508683   -4.30444215447520   -6.82412287871089
H         6.61432622811635   -2.13330094158799   -5.71423990501503
H         7.24217552304651   -3.44946157760269   -4.73974959162538
