35
 energy: -44.226393961046 gnorm: 0.095261137327 xtb: 6.4.1 (025e99ea0bd20707e8cccc6e19fe66a0758c6dd1)
C         0.89001179831460    1.12959167012381    0.34380525316789
O         2.25050043758155    1.38096738143602    0.01737563461492
C         2.75599720619737    0.65397126990025   -1.02503347492835
C         2.02846090147319   -0.12376549206623   -1.92696790002079
C         2.63350826345164   -0.79463392085501   -2.99436946062708
C         3.99181123773524   -0.56958498681169   -3.25752254743313
C         4.75300884202412    0.18640129203249   -2.35613432643254
C         4.12705384791538    0.76676784982296   -1.24023582697527
C         4.75129633158032   -1.30965618226465   -4.33924541510602
C         5.43537980616073   -2.63766629227186   -3.91859695493317
C         4.42106429012691   -3.74778742626206   -3.59696372043452
C         4.98620728304780   -5.11086589428326   -3.98487078781899
C         5.39049816989963   -5.28224555310591   -5.43626172752803
C         5.67939819818303   -3.94769776959737   -6.09304071431450
C         6.37696087115604   -3.10785522581116   -5.03836940054197
H         0.79555748089983    0.17949565097960    0.87974582173254
H         0.22307211416197    1.17151442366334   -0.52304291233121
H         0.54434757625478    1.92203379028592    1.01578553670542
H         0.94652023146306   -0.10549499593921   -1.82929545130058
H         2.15190377857689   -1.34620292688010   -3.79985183830166
H         5.81131559040060    0.27030235376865   -2.58197483902234
H         4.64459351817444    1.25872300249593   -0.42205161496083
H         5.47579540663527   -0.49953182962546   -4.50659224659354
H         4.07583856403153   -1.55123594855238   -5.17114606756418
H         6.08238721399712   -2.44443712989466   -3.04639335059756
H         3.50059148840815   -3.54443429903361   -4.15506781344101
H         4.20307677063054   -3.66854501407901   -2.52167871250361
H         4.24245373271482   -5.83043894458612   -3.61933192816724
H         5.85228730619325   -5.25400531400114   -3.32557484266078
H         4.61452673396137   -5.85351730402082   -5.96182647480041
H         6.33827484592817   -5.83227635606474   -5.44979881811433
H         4.72153758045635   -3.49487609067843   -6.37111689089843
H         6.25939095850388   -4.03088495032233   -7.02131316819053
H         6.93936564527760   -2.30788565785277   -5.53034997020375
H         7.16126761339142   -3.78083270598222   -4.66097012206738
