35
 energy: -44.220319153970 gnorm: 0.088987103472 xtb: 6.4.1 (025e99ea0bd20707e8cccc6e19fe66a0758c6dd1)
C         2.11745899574161    2.02252789580548    0.43371557601590
O         3.29576819419379    1.88708557907499   -0.34981374437392
C         3.29398000253409    0.80483727762040   -1.18611661472251
C         2.27617373865004   -0.14103873866048   -1.31672373383784
C         2.21185973362361   -1.06396496661829   -2.36532458127353
C         3.31484283008806   -1.17827302511423   -3.22278915068643
C         4.44371983771680   -0.39232416834002   -2.95565836966116
C         4.43300615167696    0.59895887423269   -1.96010947502726
C         3.32772206622107   -2.21077458524289   -4.33113114905844
C         3.95286105050985   -3.57734413250866   -3.94355521946140
C         3.99773841242718   -4.39592900479950   -5.24453856690863
C         5.35384036673797   -5.08130105492986   -5.38271978887436
C         6.37107243065795   -3.96691079211738   -5.53348795855955
C         6.44733264163476   -3.05589485568292   -4.32515274272106
C         5.34790841900347   -3.38013089351927   -3.32996525732780
H         2.17658697671347    2.88817661886767    1.10154229554212
H         2.03671134114246    1.20150412300259    1.15301494602093
H         1.29004840954543    1.98719069125788   -0.28262845791166
H         1.36773104996424   -0.08020861310163   -0.72384860930229
H         1.35147555510259   -1.72622397106182   -2.44358809755720
H         5.35606697820890   -0.63787352610529   -3.48987246881871
H         5.30785891601070    1.23033890753154   -1.83647905441168
H         3.82656570352214   -1.78740055507089   -5.21493812965338
H         2.30816525668481   -2.50904195408952   -4.61077943230984
H         3.37910416243046   -4.19419055136455   -3.23151677303130
H         3.82834393909202   -3.73489112556390   -6.10153173368402
H         3.10173357204220   -5.03400045132658   -5.23582518610351
H         5.35234634738003   -5.58590682816002   -6.35737057690149
H         5.68026088314393   -5.63780513702320   -4.49445884959038
H         6.06903094562676   -3.43130283273836   -6.44266145241339
H         7.34093703956416   -4.46025600208930   -5.66376040072613
H         6.24603856123944   -2.07056088429404   -4.75928227914726
H         7.39555486906355   -2.99660571679927   -3.77527924547599
H         5.24493645766874   -2.59091714861905   -2.57841102677929
H         5.74068552155335   -4.22633340240651   -2.74675566322366
