35
 energy: -44.220849658279 gnorm: 0.099144817932 xtb: 6.4.1 (025e99ea0bd20707e8cccc6e19fe66a0758c6dd1)
C         0.76199785901385    1.18319041902460    0.11908482790578
O         2.16866961969370    0.97837620457869    0.11805154354600
C         2.73983647764850    0.32854113541880   -0.94126420806197
C         2.05544185010639   -0.09625374732640   -2.08092316169298
C         2.67178815006312   -0.58009636233765   -3.23915732923020
C         4.07305231600722   -0.60776859656976   -3.26316764216772
C         4.82117326397404   -0.20848216312847   -2.14767531345933
C         4.12754703746971    0.33862726002760   -1.05523384181651
C         4.81474088000865   -1.14488038358095   -4.46983922989867
C         5.58159497240238   -2.45319510186821   -4.14003085124330
C         4.69504691532305   -3.42737809107600   -3.34652415628613
C         5.18908894090250   -4.83159096934945   -3.68111356625196
C         5.23042843976322   -5.28112411035281   -5.12872151316793
C         5.36889828538478   -4.10128515382115   -6.06927761804510
C         6.22432559580695   -3.03539466162279   -5.40868520727704
H         0.22756831700003    0.22763464973742    0.13068611784815
H         0.41815529657242    1.94477888638284   -0.58784310158088
H         0.63685232199189    1.70828694307514    1.07177470705816
H         0.99038798228476   -0.21636574970339   -1.90287067314279
H         2.11949505839531   -0.81527176128632   -4.14725312024197
H         5.90424313458257   -0.24198716080051   -2.21007367189460
H         4.70944809981306    0.74672685621307   -0.23417449710714
H         5.48499730078490   -0.35130398745137   -4.83066904613852
H         4.05976009765712   -1.29352837768898   -5.25378467613012
H         6.50029082448204   -2.25984867013127   -3.56097100330535
H         3.62011176792475   -3.22073854369271   -3.39031198228260
H         4.80414116867128   -3.32279550646471   -2.25693859656772
H         4.65567106233556   -5.57579874780534   -3.07597430566543
H         6.24823224666000   -4.83265646242203   -3.39220360511908
H         4.29232348031042   -5.77785723603037   -5.40785709452195
H         5.98022233955450   -6.06483941238808   -5.28555644791345
H         4.38942132269349   -3.72986524553111   -6.38950086191551
H         5.81967729035174   -4.31475040494380   -7.04714894514874
H         6.44527749822621   -2.16936611523759   -6.04072170411967
H         7.20186635911564   -3.50642857200922   -5.22700670365131
