35
 energy: -44.203271688194 gnorm: 0.092038546798 xtb: 6.4.1 (025e99ea0bd20707e8cccc6e19fe66a0758c6dd1)
C         1.34239594350411    0.38370103939600    0.42184400659626
O         2.66082361358925    0.66905096324056   -0.02648543083930
C         2.99879284001013    0.11514483506763   -1.23049202894104
C         3.99667804781202    0.71646232863383   -1.99880944502000
C         4.17460753579896    0.36320839098922   -3.34009450214945
C         3.41925150902122   -0.67857669506075   -3.89597635995022
C         2.55002582344440   -1.40319704860282   -3.06965330057105
C         2.34801056564257   -1.00679561546146   -1.73701299404423
C         3.93440657503794   -1.18345104969236   -5.22802908981103
C         4.85180659132609   -2.41973017776534   -5.03177083927888
C         5.93429242670082   -2.15420339121773   -3.97234987921902
C         6.72645444831806   -3.35742510161302   -3.46977824421857
C         6.33352528789184   -4.57016141862700   -4.29089642627774
C         4.85995916024407   -4.79587114278841   -4.01979195038264
C         4.09247738013057   -3.73268378350594   -4.78455669454424
H         1.15128255883040    1.19811607365656    1.12827177054463
H         1.36637524221407   -0.61553895187380    0.86786669304567
H         0.59643921808359    0.52985168628895   -0.36631481099182
H         4.52250316018115    1.40356758849026   -1.34164610895810
H         4.77826403219364    1.01878668673801   -3.96522571907885
H         2.03384885805565   -2.30795561228793   -3.37466112279524
H         1.65899982887847   -1.43673135287268   -1.01610242451490
H         4.42305946540318   -0.33904700090970   -5.73538052610277
H         3.08827884184297   -1.50055967253202   -5.85266710592156
H         5.33147903397976   -2.54596991761167   -6.01699827401817
H         5.48764047386178   -1.61763047454085   -3.12813759114727
H         6.70818146563224   -1.54470704993131   -4.46188612032604
H         6.47018452410259   -3.55852804771568   -2.42170539089985
H         7.81066643342715   -3.24737259701107   -3.60254668679039
H         7.12671769583869   -5.30239738245556   -4.09245831755285
H         6.47439577260063   -4.42568630076563   -5.36805946453787
H         4.60809421560531   -4.69294842315450   -2.95873504395976
H         4.30895697554954   -5.69868513021114   -4.31360303633813
H         3.13475369222623   -3.61613074706063   -4.26737583115169
H         3.83843572130092   -4.11020751488098   -5.78625756608001
