35
 energy: -44.222788185098 gnorm: 0.102080269695 xtb: 6.4.1 (025e99ea0bd20707e8cccc6e19fe66a0758c6dd1)
C         1.17822725808360    2.02217467162754    0.26483599510965
O         2.29674622715994    1.15507791141331    0.39800466676356
C         2.76134864568343    0.42816379164154   -0.66331880459127
C         2.11820492813446    0.39438654478480   -1.90141996724218
C         2.55988512032292   -0.34911419974092   -3.00033674578845
C         3.84317668479814   -0.90733136775615   -2.92008791991655
C         4.61755852484969   -0.69749812834265   -1.77128832091007
C         4.01103683436020   -0.18384565007472   -0.61276900321576
C         4.50580487211030   -1.31774017581925   -4.21898584085359
C         5.14110858794559   -2.72898314117116   -4.33434892114054
C         4.06248378727684   -3.82324387927726   -4.39611304383091
C         4.75494773999003   -5.17574801828153   -4.25802744318966
C         6.09041806335143   -5.21998403300686   -4.97490955244420
C         6.22326839444040   -4.21965866714315   -6.10519252590087
C         6.00153226430709   -2.80356077547171   -5.60543197570377
H         1.12670331395039    2.45780997027087    1.26803264949695
H         0.29036795460030    1.47808705023703   -0.07230836131230
H         1.41376148716014    2.76258903399285   -0.50673121881171
H         1.13259944346877    0.85160397855031   -1.89958260488354
H         2.04241288470604   -0.33292183867719   -3.95790313529664
H         5.62743782135423   -1.08522958712827   -1.68260568839449
H         4.62936055039720   -0.10994249331567    0.27689761009219
H         5.30414391348890   -0.60495862291141   -4.47157751495655
H         3.83340729665201   -1.23850013723265   -5.08400906569949
H         5.74384356136231   -2.90629819176483   -3.42772598901430
H         3.69500458173489   -3.88481513014726   -5.42629305987377
H         3.31868643927563   -3.55565510760253   -3.63113100464553
H         4.06504866645335   -6.00229839025876   -4.47116384622413
H         4.96336660875225   -5.23606460957908   -3.18184059734734
H         6.19885432338735   -6.27760819968250   -5.24762567873089
H         6.89264001753762   -4.91616816310545   -4.29290250119126
H         5.51194979461212   -4.46177812317946   -6.90223381305554
H         7.20379203927595   -4.26336266532952   -6.59678666670524
H         5.52975558178539   -2.22664633031462   -6.40723731682323
H         6.93190145076102   -2.22413554116817   -5.50979964840232
