35
 energy: -44.227944624753 gnorm: 0.082433707058 xtb: 6.4.1 (025e99ea0bd20707e8cccc6e19fe66a0758c6dd1)
C         2.39275436051424    1.46719863100374    0.82985939659215
O         3.24464150959308    1.78438800842192   -0.26300590438776
C         3.27403132280252    0.84211877912908   -1.25393072939620
C         2.60686630057194   -0.38118717595976   -1.17593958580587
C         2.48082566275125   -1.18229415106812   -2.31516485557064
C         3.28548214922443   -1.00058185986148   -3.44847509864895
C         4.08362071921131    0.15108962416130   -3.44038929346337
C         3.97810760682500    1.11508643741093   -2.42380109024250
C         3.35407229647885   -1.94010171147029   -4.63474874657380
C         3.82021490164942   -3.35379977730045   -4.19577832993303
C         4.12774112178541   -4.16259187392519   -5.46697296641250
C         5.30679887847039   -5.12415731330430   -5.35270960231562
C         6.55438368371365   -4.33679142137503   -5.00207464373013
C         6.33093682772682   -3.20006904408378   -4.02546142039387
C         5.03111676022737   -3.31767988425363   -3.25028644573436
H         2.96389689063961    0.71863599867255    1.38868544650970
H         1.42165397350015    1.10458057085587    0.47848497709526
H         2.23888404272505    2.33696773337110    1.47703124621043
H         2.29035637685058   -0.75666688173920   -0.20676169344323
H         1.94862439545866   -2.12800164797676   -2.22930306301645
H         4.63687497102101    0.31397374218004   -4.35986468453655
H         4.52170854737893    2.05030037696787   -2.51953763010773
H         4.01775217842096   -1.48991060374149   -5.38711986728557
H         2.35653221427239   -2.06809547785324   -5.07655645591715
H         3.04792779690584   -3.80591985242107   -3.55090990415834
H         4.31323876766975   -3.46661658826688   -6.29238915029806
H         3.26815128599988   -4.74839063415173   -5.82471713842616
H         5.45060986843220   -5.71086181076844   -6.26904447956945
H         5.03624105295438   -5.89011064666639   -4.61421884635375
H         6.98282696057886   -3.89376936220689   -5.91029774395526
H         7.33881280365964   -4.97142829672254   -4.57440098736933
H         6.32102666508566   -2.30653529654463   -4.65899912733156
H         7.16189184824722   -3.11238642836931   -3.31354360920151
H         4.90139250199896   -2.64895067729219   -2.39339194602083
H         5.17467544743789   -4.29534560731059   -2.76652348041571
