35
 energy: -44.222315121245 gnorm: 0.097194153259 xtb: 6.4.1 (025e99ea0bd20707e8cccc6e19fe66a0758c6dd1)
C         1.25967708864399    0.58806979510685    0.76895520819324
O         2.53131434908555    0.89361168452209    0.21194694957556
C         2.93719731868083    0.54732296670122   -1.04742202057467
C         2.14203897624067    0.29183380609231   -2.16550865645799
C         2.76920852466463   -0.17676410764206   -3.32420067327483
C         4.15502886399980   -0.38373075203412   -3.28482660781717
C         4.97352113761221   -0.13517734248740   -2.17499357920596
C         4.32126820690989    0.39508697898440   -1.04926700924168
C         4.84462464521889   -0.92806065553035   -4.51884846755107
C         5.14771738149577   -2.44911230458780   -4.46350552359794
C         3.94048841754232   -3.33917144446308   -4.12432152714722
C         4.23857360789215   -4.83535744526937   -4.10397281204779
C         5.70915097669262   -5.14423919130812   -4.30732481193439
C         6.10499587648645   -4.54128009223655   -5.63983627054081
C         5.72943080487969   -3.07399568191145   -5.74126649935296
H         1.14342639012122    1.18514336758891    1.67935362557777
H         1.21175299173927   -0.48521159549361    0.97814922423156
H         0.43786245742871    0.90818367601250    0.11999174195562
H         1.06090053718693    0.39885268533719   -2.15302045164158
H         2.22908884701710   -0.54071278968471   -4.19643067991104
H         6.03142784207930   -0.36417678219320   -2.25530015663083
H         4.77911970525925    0.77489994810221   -0.14074805170767
H         5.83203747122953   -0.45990152805668   -4.64151985575223
H         4.20818198070374   -0.71153665220568   -5.38759512783559
H         5.84786339018984   -2.57251323669583   -3.62014142869015
H         3.11639899472487   -3.21781950144710   -4.83583623384748
H         3.42241915726930   -3.01504498948226   -3.20967293528524
H         3.72207704163501   -5.37463868329842   -4.90832374178064
H         3.79685246817212   -5.31189747696282   -3.21907356708041
H         5.83888006787068   -6.23253248381634   -4.36639644531644
H         6.28764026135918   -4.74771097333551   -3.46523616868545
H         5.48754872066608   -4.98627137760406   -6.42762593856882
H         7.17382683377228   -4.76408323201436   -5.75368090831489
H         5.03642937423092   -2.85166486080717   -6.55895430178070
H         6.64022113163179   -2.55780388234206   -6.07960504707847
