35
 energy: -44.222541312854 gnorm: 0.097882252446 xtb: 6.4.1 (025e99ea0bd20707e8cccc6e19fe66a0758c6dd1)
C         0.94643435889114    1.18321307116773    0.29062453246495
O         2.30504502048962    0.76895470522918    0.23368202408160
C         2.77718611104022    0.23081386078783   -0.93171674021585
C         2.07337279405077   -0.32684204371471   -2.00004999067987
C         2.69652623609363   -0.62243793727605   -3.21651852048330
C         4.08712848669677   -0.53594933962541   -3.37023458843840
C         4.82097530489718   -0.06580890150915   -2.27302241107027
C         4.15655625692672    0.32334564549943   -1.09787114122521
C         4.66671258765306   -1.19920432390178   -4.60263972831745
C         5.51084223583368   -2.41524721960302   -4.13658071225168
C         4.46342949187607   -3.41872958671986   -3.62608827327941
C         5.11576538385965   -4.79745257357078   -3.58837593121719
C         5.14473756090964   -5.13429087561870   -5.06657021597813
C         5.52895071577054   -4.02987067422615   -6.03014477065624
C         6.34622661560687   -2.98331903253068   -5.29458340004408
H         0.30448453649452    0.41643897508265   -0.15523897321185
H         0.77228260929419    2.09840968721832   -0.28389972373171
H         0.69570297768931    1.29087624272734    1.35107169489477
H         1.00159220489816   -0.46542155702557   -1.88801692262971
H         2.16367830037677   -0.98066130303312   -4.09556470660912
H         5.89543720202449    0.06113461395691   -2.35947160478409
H         4.66835894343882    0.95366498464498   -0.37672751968606
H         5.37449059913059   -0.53439789483130   -5.11867075718690
H         3.84626845973248   -1.59905331835583   -5.21391289896346
H         6.21985554480726   -2.11683935977298   -3.34604412023858
H         3.53889996325911   -3.41244736110480   -4.21371786620047
H         4.05145147298476   -3.11206134464814   -2.65332701245319
H         4.49194671742621   -5.52016010336227   -3.04697268468442
H         6.08805374894022   -4.71593554839088   -3.08512156811654
H         4.21403990995080   -5.64218364247419   -5.35038037635185
H         5.93607820431861   -5.88612217915065   -5.16417883681210
H         4.66513686441618   -3.50339450588649   -6.45028673675471
H         6.17843966230419   -4.30559723755725   -6.87106119324579
H         6.64472651895344   -2.16415241967668   -5.95651934206145
H         7.27214173876352   -3.46668462244713   -4.94888864626622
