35
 energy: -44.226712465224 gnorm: 0.086801828286 xtb: 6.4.1 (025e99ea0bd20707e8cccc6e19fe66a0758c6dd1)
C         0.65945619759675    0.98038414856808    0.15102613946907
O         2.05665942650645    0.72190331733911    0.10996310885654
C         2.66169807569472    0.45341753964865   -1.08691227715740
C         2.07619201010781    0.26283257045872   -2.33932165518444
C         2.84604720669154   -0.30326945135851   -3.36027430848270
C         4.22194027462505   -0.53002115760430   -3.21749670930083
C         4.83729987658437   -0.26534401472066   -1.98675859167540
C         4.02785767959344    0.22318147586628   -0.94751818777755
C         5.01383811668608   -1.04239682301919   -4.40283054540128
C         5.70545194333034   -2.41928415273701   -4.21741815085576
C         4.93539394507888   -3.44178081611757   -3.36526553609301
C         5.49147084674964   -4.84061561544450   -3.61402462951312
C         5.16901916786010   -5.35672085710542   -5.00291557645621
C         4.96979553796242   -4.15349399907542   -5.90202331303610
C         6.00565535619022   -3.09670424546124   -5.56371781431994
H         0.08853661349941    0.08936234665245   -0.12998512645720
H         0.44120324242285    1.80163923339421   -0.53882713114503
H         0.47219149275720    1.28647409003135    1.18555339734671
H         1.10076857178632    0.60299414112762   -2.67593499928773
H         2.24853731086929   -0.49990657547208   -4.24869361489631
H         5.90774557900656   -0.38824560074637   -1.85600048740463
H         4.45328781962311    0.32289505624281    0.04664426363812
H         5.73135238344787   -0.25758631228050   -4.68292170976223
H         4.35757237738178   -1.10812230344169   -5.28127127143340
H         6.63760524095076   -2.16814128416551   -3.68383337898351
H         3.85041284176266   -3.36186610063841   -3.49384427303573
H         5.19698137277576   -3.18283639175599   -2.32865781422762
H         5.06535069199303   -5.46350152781938   -2.81715065606132
H         6.57629326271212   -4.77692100535999   -3.45795424444060
H         4.25022508756516   -5.95326482164594   -4.93469444730284
H         5.99240566963781   -5.95274470610166   -5.41253491684283
H         3.91474969610788   -3.88967923714327   -5.77106210759364
H         4.85613932444484   -4.47930963246989   -6.94410195411210
H         5.98679443781764   -2.32835402574960   -6.34319040867617
H         7.02883395516752   -3.49587138949390   -5.62881091664520
