35
 energy: -44.216844937230 gnorm: 0.095392956977 xtb: 6.4.1 (025e99ea0bd20707e8cccc6e19fe66a0758c6dd1)
C         1.14383300759697    0.53098342200846    0.37779861202166
O         2.56272805689331    0.55642222846383    0.29554843261011
C         3.04719130708884    0.36861007241336   -0.96963497055261
C         2.27520503685697    0.05507629688708   -2.08918980723341
C         2.91627260659028   -0.38181628427423   -3.25265450682117
C         4.31122824506123   -0.35285757517646   -3.38735309285030
C         5.05251268735961    0.08346757031315   -2.28120866118288
C         4.43735995099105    0.34939924047666   -1.04640425640144
C         4.79326131176344   -0.86042850534108   -4.73073063503979
C         5.09841895459518   -2.35972612164951   -4.47090056618974
C         3.95249932000103   -3.15813224298335   -3.82741886928001
C         4.17856745596074   -4.66701676700458   -3.82597105866562
C         5.56321042677969   -5.09759755007667   -4.26950437273195
C         5.93434339230921   -4.48993378840211   -5.60698137187774
C         5.68839004026932   -2.99778202770512   -5.73832379678532
H         0.73142416442671    0.46308562002269    1.38979920036843
H         0.78210721209886   -0.40997867599229   -0.04850712597992
H         0.71733120275652    1.40509188688630   -0.12522859638233
H         1.18903678273709    0.07806805467701   -2.07580192565069
H         2.32469761877573   -0.61592372803505   -4.13594712758930
H         6.12772075858908   -0.06430985881926   -2.26912837320632
H         5.04837421302539    0.52941882094153   -0.16688898765336
H         5.63089502802150   -0.22962640808008   -5.06188588509355
H         4.00404459373881   -0.82096450785471   -5.49377862844444
H         5.93094391642042   -2.19152624206064   -3.76712061605354
H         3.04013913062075   -3.03276700611753   -4.42070235503607
H         3.77708101856035   -2.78211994267728   -2.80865543454297
H         3.40838584478521   -5.15230431315364   -4.43906946766362
H         4.05604426969777   -5.01392381816060   -2.79161221871730
H         5.56126924513091   -6.18697300516760   -4.40351458084444
H         6.30823597095183   -5.04454175611331   -3.46755687760112
H         5.39524077734176   -5.05531021898727   -6.37482813926339
H         6.97716455929896   -4.71559763766531   -5.86505364556784
H         5.12600003755427   -2.76469947732265   -6.64809592763025
H         6.68373302191160   -2.59384922733245   -5.97622422110410
