35
 energy: -44.219952914693 gnorm: 0.107732953342 xtb: 6.4.1 (025e99ea0bd20707e8cccc6e19fe66a0758c6dd1)
C         0.87202359159029    1.15054227526884    0.47333038383388
O         2.18502683553935    1.41211962384641   -0.00445110396721
C         2.72146509906916    0.67715530725300   -1.02559189728307
C         2.09975798001468   -0.23484138505033   -1.87964783977916
C         2.69069288164475   -0.86486434272224   -2.97935683609368
C         4.03397854950921   -0.59177618362640   -3.27242684345345
C         4.77054662383313    0.15679350638550   -2.34476921461810
C         4.05558266675482    0.87503791468443   -1.37171938109103
C         4.69394249781775   -1.36325993771441   -4.39666336788988
C         5.47937965415792   -2.61708396107413   -3.92811242861086
C         4.45075148856565   -3.73774518519136   -3.70295612488849
C         4.90465195148999   -5.16788043067355   -3.97959480025702
C         5.24283038718956   -5.24889267838441   -5.45554538608674
C         5.87439663798476   -3.98385810117333   -6.00020237933327
C         6.51888356416697   -3.08958908370196   -4.95656437204936
H         0.93588064996146    0.27205570800674    1.12373024856196
H         0.17015945901615    1.05931261867147   -0.36156822687008
H         0.64121916519028    2.03166527964221    1.08107814331746
H         1.03700847005806   -0.36646208781091   -1.69604824173494
H         2.13218187906192   -1.49673675363759   -3.66767059502871
H         5.84976254073212    0.18311706383328   -2.45727067919606
H         4.55006109274848    1.68827069494554   -0.84880817526742
H         5.36660355469203   -0.54053228400741   -4.67924371489028
H         4.04594546662428   -1.63926215565737   -5.23962558388282
H         5.93835335807520   -2.29753268962985   -2.97736253980070
H         3.58166833445818   -3.51057824402531   -4.33000676542390
H         4.03567146232077   -3.71001387774590   -2.68463627604005
H         4.09278360477899   -5.86520926964441   -3.73633433368181
H         5.78897912578335   -5.34673566421188   -3.35411026983631
H         4.30277257514149   -5.42255310323692   -5.99483635937383
H         5.98707653121070   -6.00880216993051   -5.71942605378479
H         5.07986442957038   -3.37379318886548   -6.44338424906639
H         6.57365193691712   -4.24657742731048   -6.80457918226916
H         6.88332249306298   -2.17602070886842   -5.43705621891990
H         7.28783791345845   -3.66464964036231   -4.41946053061792
