35
 energy: -44.214411297934 gnorm: 0.096914836006 xtb: 6.4.1 (025e99ea0bd20707e8cccc6e19fe66a0758c6dd1)
C         1.08307848112918    1.26360750464798    0.58349018418901
O         2.35970986726846    1.55793206196344    0.03189183902711
C         2.85645986552459    0.78216949942328   -0.97909725518887
C         2.18217770609297   -0.30803944824375   -1.53087370556057
C         2.68813584725047   -1.11216806683924   -2.55697134654614
C         3.90983036496850   -0.74240418146517   -3.13629914665337
C         4.53766341339535    0.39623309135507   -2.61402662819197
C         4.10219346819872    1.12772586959687   -1.49636894820627
C         4.61810080247854   -1.45931507319278   -4.26724525364335
C         5.18466232474283   -2.80659600443479   -3.74535607065312
C         4.16010756313908   -3.90368195807951   -4.07903674467880
C         4.78269526237490   -5.25401409224164   -4.42083945319468
C         5.51591563693304   -5.22149144562494   -5.74774861738587
C         6.10816946623887   -3.83698746574722   -5.91574796793489
C         6.41416049614605   -3.12485975533994   -4.61056431166834
H         0.72757649329576    0.25782894791361    0.33678350448828
H         0.47399470145519    2.11088002701251    0.25312973695935
H         1.23672558680385    1.37260554952759    1.66215498985586
H         1.13756792837840   -0.52823134148161   -1.32894482797614
H         1.98240322555807   -1.81026822378709   -3.00370475420615
H         5.32879921079789    0.75288519073073   -3.26591613351402
H         4.60280060807337    2.05819618214628   -1.24555015323746
H         5.37541512943532   -0.78123231627539   -4.68663065300193
H         3.85907348011557   -1.68012134252519   -5.02999343764141
H         5.48969871375348   -2.75705799217695   -2.68649158012373
H         3.46956194165415   -3.60964400617898   -4.87702877460546
H         3.53930385619241   -4.00356340665254   -3.17645033765881
H         3.93549285781057   -5.92757320972348   -4.60288224488213
H         5.44247710834934   -5.55511545066988   -3.59665468569606
H         4.77823179837319   -5.40529159366688   -6.53941865385626
H         6.27567625072111   -6.01110085333342   -5.76443866565475
H         5.51384563715741   -3.19834588293966   -6.57815789482678
H         7.05365481801913   -3.95605018943166   -6.46061765510991
H         6.90624696560729   -2.22787051159686   -4.99986692569902
H         7.25086290111440   -3.63608956227967   -4.11152609686691
