35
 energy: -44.214015416985 gnorm: 0.086964685513 xtb: 6.4.1 (025e99ea0bd20707e8cccc6e19fe66a0758c6dd1)
C         1.39332561552100    1.43293026749980    0.73534482181600
O         1.72713452783586    1.74206726095592   -0.61138503324700
C         2.48919171316914    0.90341990125017   -1.37728745392293
C         2.27455275888240    0.92893572990542   -2.75603627596215
C         2.84456429641148    0.01422776263235   -3.64704077565028
C         3.62165336329391   -1.06547356233506   -3.20515714249067
C         3.78020714670129   -1.10626270226751   -1.81352691799988
C         3.22020545236929   -0.18625330606421   -0.91138765596600
C         3.98452427783098   -2.22846650531989   -4.10539012385685
C         5.48517119990676   -2.58066181532888   -3.92499210958594
C         5.93227567514758   -3.79114138187652   -3.08863714349342
C         6.08640159081360   -5.02180016680893   -3.97721215893721
C         5.20831527644956   -5.02184070523348   -5.21346544603979
C         5.60394011595242   -3.91732313537644   -6.17229888959164
C         6.01736168748827   -2.70245364912778   -5.36147493009417
H         1.12060448087348    0.37985134405990    0.85978081698142
H         0.54726853089508    2.07814969133092    0.99199849224390
H         2.25536788956047    1.74537522777801    1.33389894105145
H         1.47428525873955    1.57453703258368   -3.10709213619359
H         2.44513241597502    0.02812014535034   -4.65957930793367
H         4.31682409195474   -1.87307054124277   -1.26388659816887
H         3.33930988599041   -0.45066291937975    0.13512764036857
H         3.74158208562577   -1.91804610443213   -5.13194922413432
H         3.44552711889453   -3.16240118700250   -3.89584123890373
H         5.93119611869478   -1.67689716079729   -3.47669930123767
H         5.37675193717546   -3.88005215067739   -2.14864187855420
H         6.95555704641899   -3.53840742751489   -2.77390463951855
H         5.85277728826444   -5.91759981787959   -3.38769028038850
H         7.14350412266381   -5.06740264226725   -4.26997365505656
H         4.21947337616915   -4.70571121214536   -4.85715767718188
H         5.18409721252332   -6.04607903970268   -5.60249897059842
H         4.80680860306527   -3.70747900459993   -6.89369863084292
H         6.46161262048028   -4.22038876570064   -6.78675031641663
H         5.78022078254750   -1.77933780833825   -5.89991402198797
H         7.11723843349608   -2.70676377851439   -5.38828042846200
