35
 energy: -44.220627739530 gnorm: 0.091746810649 xtb: 6.4.1 (025e99ea0bd20707e8cccc6e19fe66a0758c6dd1)
C         0.71221038252050    1.46316014866590   -0.25886500824751
O         1.96344709348493    0.86407568213164    0.05126380217790
C         2.57512815871019    0.24140699681745   -1.00173052798054
C         2.07952512033426    0.08110792293100   -2.29647030386091
C         2.87542505221457   -0.41870547079788   -3.33195218181516
C         4.17623667148590   -0.89358389119057   -3.11455128162162
C         4.71756483911256   -0.71444073761883   -1.83458671139724
C         3.88724100536304   -0.19148788593128   -0.82912309135299
C         4.92698685722212   -1.40087437218642   -4.32850262185125
C         5.96811811846287   -2.52200648513813   -4.06843599146921
C         5.33445558158128   -3.53383342513071   -3.09924516124316
C         5.00056675226811   -4.85706792310181   -3.78145489180598
C         4.42496292314582   -4.49592658414444   -5.13704145628623
C         5.44753269270623   -3.92639633581873   -6.09923998650970
C         6.50900282141037   -3.11468670427372   -5.37905292823817
H        -0.07899827317870    0.71723247308292   -0.38699433043776
H         0.79482940736691    2.05769501642750   -1.17412136070402
H         0.42320560396170    2.09388134009902    0.58829069556496
H         1.11064408122722    0.48999216097416   -2.56951341752602
H         2.56418593577832   -0.33165088247289   -4.37143514066492
H         5.68438689248024   -1.12127573365463   -1.55566576649366
H         4.10521239279159   -0.02065328091516    0.22092290807451
H         5.34880329560224   -0.48705561260959   -4.77146028868003
H         4.15072702032112   -1.77899624201666   -5.00755136239810
H         6.79538173562516   -2.06495016260713   -3.49972723784926
H         4.45777598180804   -3.04330621862660   -2.66230261327471
H         5.95354653814435   -3.72421876563803   -2.21013573330332
H         4.41755155658153   -5.55456869980937   -3.16650829002535
H         5.95221094223292   -5.37992084932479   -3.94348203699079
H         3.57855757313389   -3.80453807527932   -5.03564471412723
H         4.08121941431119   -5.37059843683863   -5.70076773279082
H         5.01313930775347   -3.37086569677702   -6.93742784806597
H         5.90151027144587   -4.85579088117893   -6.46684248227275
H         6.86110941264976   -2.24950137235516   -5.94981611068666
H         7.37326397301644   -3.70998396196126   -5.04868978373479
