35
 energy: -44.222687175516 gnorm: 0.094515029716 xtb: 6.4.1 (025e99ea0bd20707e8cccc6e19fe66a0758c6dd1)
C         1.85281167362117    1.95514543991149    0.87666638965023
O         2.84697573046682    1.87928997702289   -0.13652616380417
C         3.01443102275734    0.81497201698024   -0.97905395840645
C         2.09357994856227   -0.20806193079673   -1.20949722681459
C         2.28951288900767   -1.09193026152271   -2.27527389958260
C         3.44022931417301   -1.05123382360869   -3.07469810527514
C         4.39852883080711   -0.07550366550753   -2.76965635561337
C         4.18420968362797    0.84887417839790   -1.73357365176236
C         3.48336061133263   -1.89517253073690   -4.33189916183191
C         4.27742972184537   -3.21132836884683   -4.11809028070093
C         4.09605741702355   -4.17890074943885   -5.29942876367728
C         5.08183847730839   -5.33103336906712   -5.46874365244383
C         6.51777611711263   -4.88522948660220   -5.27202110368111
C         6.62720984574389   -3.37864993509862   -5.15335365126248
C         5.79129134895430   -3.01728114073289   -3.93889343306082
H         1.90372054032360    1.16491074126668    1.63282362278192
H         0.85261042316355    2.02280721545624    0.43733605564098
H         2.04884669611551    2.92990900280809    1.33537330732722
H         1.23135366465793   -0.44419553580107   -0.59202164840479
H         1.59968782716096   -1.91345972193307   -2.46021671708134
H         5.30385356328975    0.01627593128267   -3.36128135208883
H         4.97759025179277    1.52625375060323   -1.43191692528063
H         3.81454554324042   -1.27083257569492   -5.17434885699316
H         2.45326403163758   -2.16026942595778   -4.60628456418155
H         3.94621593198558   -3.73496868148325   -3.20551509405755
H         4.13947269068734   -3.56694365693556   -6.20702255127260
H         3.13664337627777   -4.71506677660103   -5.34510650123541
H         4.94455332808748   -5.90008722534734   -6.39713143326515
H         4.82159407076093   -6.10515113932518   -4.73507535590745
H         7.14350432525804   -5.21045383260542   -6.11308871148489
H         7.13463911329997   -5.28019014166930   -4.45686229152414
H         6.31691925414362   -2.78217841239291   -6.01811504432850
H         7.69138433415678   -3.15292436608097   -5.00644523284314
H         5.91434700628004   -2.01778353298193   -3.50975807144290
H         6.04359444833587   -3.70830237052584   -3.12078660818113
