35
 energy: -44.220773222532 gnorm: 0.086377638465 xtb: 6.4.1 (025e99ea0bd20707e8cccc6e19fe66a0758c6dd1)
C         1.39261054000427    1.46956921231121    0.86668816868854
O         2.68174806230257    1.45238410364135    0.26793572375130
C         2.98480914998986    0.79780293382235   -0.89410753794776
C         2.07812993838176    0.38231388662427   -1.87030983096516
C         2.41803151204369   -0.34883928311236   -3.01283983645510
C         3.74894929084159   -0.72129995841707   -3.24696470564569
C         4.64598163368949   -0.32442523729012   -2.24633430496643
C         4.30751753440449    0.41485686283774   -1.10056884552893
C         4.14854257762986   -1.48713177547638   -4.49134172511162
C         5.06796252253481   -2.70539674194431   -4.21023033943481
C         4.27976767255462   -3.97889876823216   -3.86152659493661
C         4.26657249705623   -4.99917843455790   -4.99585313264424
C         5.66872350363026   -5.39094339898701   -5.41994101990765
C         6.67165250426074   -4.26007731669657   -5.31451344890893
C         6.08347488264767   -2.86121204412172   -5.35303351575464
H         1.40491810124366    2.35631366464110    1.50884792754499
H         1.24513275054026    0.57066891938611    1.47349980675050
H         0.47951889953031    1.62340545921183    0.28221932629150
H         1.04527867816958    0.49529614452296   -1.55262662018101
H         1.67813347782107   -0.69541453504472   -3.73215173358179
H         5.68818042614579   -0.60361449215973   -2.36436625178608
H         5.11062361694577    0.75288720017499   -0.45245720445792
H         4.79239729131575   -0.84383753819256   -5.10845513616019
H         3.23007409320167   -1.70051574917007   -5.05485356541395
H         5.63230001274186   -2.57627650941864   -3.27132332333809
H         3.25595773573953   -3.67612353078307   -3.61608165146417
H         4.75050842821222   -4.41400598238857   -2.96759112762233
H         3.78895401830468   -4.52091903680470   -5.86056228219412
H         3.61023620150517   -5.87079162227629   -4.87433045902383
H         5.48739544963554   -5.76525640255206   -6.43567292280297
H         5.85748059543931   -6.24043628726840   -4.75381013365574
H         7.44048265772920   -4.32909652875740   -6.09169253989881
H         7.19201348212522   -4.44022102859635   -4.36489555023818
H         5.65509913138677   -2.66023007225640   -6.34014839369237
H         6.88951569907134   -2.13620211546762   -5.16561746449863
