35
 energy: -44.223183078556 gnorm: 0.091904464228 xtb: 6.4.1 (025e99ea0bd20707e8cccc6e19fe66a0758c6dd1)
C         1.22729988137652    1.37656131909342    0.44909712766673
O         2.61419810734444    1.30270674603131    0.14622057765155
C         2.83154029603139    0.62484564106084   -1.02165518097238
C         1.95926037601904   -0.23421650855348   -1.69158743783188
C         2.47290728670031   -0.94024679684478   -2.78391565965849
C         3.78273381508446   -0.78058294188163   -3.25693305926303
C         4.68088520131945    0.02892054771572   -2.54879044268460
C         4.16807755063408    0.67131785215621   -1.40939213999765
C         4.30669464273925   -1.54108532708138   -4.45766139027065
C         5.30165706681593   -2.60913998198828   -3.93056061704906
C         4.55112697119299   -3.85582259176925   -3.43342895646597
C         4.96011175287702   -5.14844321646933   -4.13321805003930
C         5.30090419384076   -5.01903142725240   -5.60511168410894
C         5.82076588199332   -3.70208931006964   -6.14478467389413
C         6.39268195774394   -2.94672416942300   -4.95878455946238
H         1.09291342258302    2.04000577118513    1.30968884173969
H         0.89453989902318    0.38785899488297    0.78035278908802
H         0.67796420892312    1.77815402220859   -0.40878362826368
H         0.90134157302828   -0.38082135048074   -1.49212776833204
H         1.79443724161165   -1.52426569800523   -3.40324871594447
H         5.72830294720023    0.26004321913275   -2.71478705548953
H         4.90566789852418    1.19823063146752   -0.81138210613210
H         4.79155208297777   -0.86932636355727   -5.18075093137964
H         3.43735780883411   -1.93377441407019   -5.00237363352235
H         5.89047954951387   -2.12958980097472   -3.13055128173514
H         3.47089704026424   -3.76528183713060   -3.59156978305843
H         4.76492975345912   -3.93896853202859   -2.35759863019716
H         4.19889286785661   -5.93486655101977   -4.05162439831626
H         5.88009538582085   -5.44673917092746   -3.61369492027156
H         4.43250751308074   -5.39310166500603   -6.16248054656809
H         6.08449225489277   -5.75202672469240   -5.82805878408317
H         5.10504285797160   -3.03026947570457   -6.63086024376327
H         6.55706824163390   -3.95144620537295   -6.91982108111338
H         6.76367326985662   -1.97986640688745   -5.31353353699620
H         7.15048767165344   -3.52083201918991   -4.40507285755873
