35
 energy: -44.220072691956 gnorm: 0.105047264958 xtb: 6.4.1 (025e99ea0bd20707e8cccc6e19fe66a0758c6dd1)
C         0.73558174427704    1.13961523887619    0.06699923407257
O         2.11223325066325    0.80123295879993    0.17189652106176
C         2.75859015453630    0.35061294679561   -0.94606208008602
C         2.18782971369830    0.21128541797132   -2.21195686351683
C         2.99663191249076   -0.24676274678791   -3.25671699242522
C         4.36785624078723   -0.50184009101887   -3.11684948476444
C         4.90438990496586   -0.35877536483748   -1.83034186222243
C         4.10701619008339    0.06207539514272   -0.75286599467303
C         5.12030645865521   -0.92273784843328   -4.36236587430210
C         5.40597521206869   -2.44445462358961   -4.25607568282222
C         4.25599056534758   -3.38088837037065   -3.84952927213618
C         4.65757248523695   -4.84683894867667   -3.71700656815507
C         5.48011000824784   -5.36381743841436   -4.88127588060090
C         5.60404757295934   -4.32287663536785   -5.97531489869275
C         6.04950498447498   -2.93126875920035   -5.56390758924265
H         0.08637788263813    0.25807349367008    0.05103515169812
H         0.42771397199482    1.82212782754653   -0.73136521934036
H         0.55822755586682    1.65487959263995    1.01676442011183
H         1.17045118561531    0.56900560222656   -2.34404215836944
H         2.53754290687111   -0.26596064177052   -4.24355124001700
H         5.93171035911385   -0.70620055568434   -1.78601449626629
H         4.64003755327525    0.14106927668929    0.18997056117115
H         6.10588751014413   -0.44109516054621   -4.43888799084256
H         4.47859312412794   -0.88313916518046   -5.25303899773065
H         6.18906789470652   -2.57088717986811   -3.48960592784576
H         3.52901310089094   -3.40166568506501   -4.66878193228789
H         3.80740869053001   -3.07435837621180   -2.89305165625798
H         3.70074766799955   -5.34242864057148   -3.50855872772052
H         5.29467353884587   -4.99300064959269   -2.83496708653837
H         5.19810686506646   -6.32764714368009   -5.32422950331522
H         6.49085005150651   -5.64646592164534   -4.56582039416535
H         4.61125536070125   -4.37257835964322   -6.43549329617712
H         6.32245122297162   -4.57886240529549   -6.76485206648956
H         5.68531192054874   -2.35597757175548   -6.42105330840793
H         7.13838323035459   -2.92453977565833   -5.40653905184922
