35
 energy: -44.222569137744 gnorm: 0.102776330744 xtb: 6.4.1 (025e99ea0bd20707e8cccc6e19fe66a0758c6dd1)
C         0.86136271251603    1.19783206239554    0.16266572658102
O         2.26774783200777    0.99965850155602    0.10364444933616
C         2.75355155565861    0.34539536715913   -0.99480971626120
C         2.01194006185880   -0.15033047161119   -2.06809323172938
C         2.58454611185297   -0.61246419452969   -3.25723055310866
C         3.98490123532862   -0.55584622303957   -3.28337359987824
C         4.77693755479904   -0.08984935575962   -2.22556305621667
C         4.14420096536807    0.37258378826949   -1.05951226752814
C         4.73702351186248   -1.21406176240626   -4.42166694024972
C         5.56551219386946   -2.46055640643238   -4.01132100708195
C         4.66333010350767   -3.54773614415614   -3.40406444784962
C         5.22754998724660   -4.92708574897446   -3.73100786204300
C         5.21427866655486   -5.22495416549390   -5.21776811424053
C         5.42949443682706   -3.98362915581015   -6.05957215476215
C         6.29285165203459   -3.05098597757784   -5.22948072498673
H         0.38679004796069    0.26205838626168    0.47562701514599
H         0.48024568014057    1.63949489414109   -0.76344201579406
H         0.74652976556470    1.97390018701757    0.92656194380427
H         0.92672030630147   -0.17786940207790   -2.02327122668403
H         2.01052704425569   -0.80193025917208   -4.16253592255927
H         5.84575145879480   -0.11194826411131   -2.41319292452588
H         4.70151148767603    0.77452443522620   -0.21859534322712
H         5.42216698463695   -0.39440553223363   -4.68233420121204
H         4.02679252804919   -1.47651704849522   -5.21750099815676
H         6.34009593193309   -2.09033789954901   -3.31875078475564
H         3.62316462916311   -3.55954720475949   -3.74760357980207
H         4.57665729652618   -3.45847851385400   -2.31110668763323
H         4.71978490655325   -5.77869176308997   -3.26035385414898
H         6.25496764564185   -4.97921530508129   -3.34766714219493
H         4.20961902457359   -5.53522991753671   -5.53255272016515
H         6.02854097820999   -5.91046816620861   -5.47862287710814
H         4.46474169333538   -3.62714102858599   -6.43645297715209
H         5.97117995452694   -4.22561714486202   -6.98316301169747
H         6.52329916583593   -2.17656177207861   -5.84638555900416
H         7.17548750836916   -3.54336707561293   -4.79476153952616
