35
 energy: -44.220366635288 gnorm: 0.093054758247 xtb: 6.4.1 (025e99ea0bd20707e8cccc6e19fe66a0758c6dd1)
C         0.80652020718954    1.00895749871649    0.38927936652357
O         2.19031684226061    1.17967420071108    0.11244356647653
C         2.72451889255139    0.61055682925541   -1.01067738133864
C         1.99881634671909    0.00786044418807   -2.03916274011504
C         2.66704350170381   -0.67510240378342   -3.06020488567404
C         4.06665648426056   -0.69369739335718   -3.13517991992058
C         4.79083860573636    0.04252239034925   -2.18809045787879
C         4.10763177292866    0.69437604537790   -1.14780699195811
C         4.79081243262346   -1.20537474137040   -4.36336223077254
C         5.56832101602361   -2.52027709318046   -4.08943086992934
C         4.47975425917222   -3.55414985975528   -3.75659102687082
C         5.07133161261010   -4.96051634733603   -3.75989957965697
C         5.33778580483269   -5.31465674016092   -5.21005285317712
C         5.63819686777226   -4.11544203557050   -6.08611046324359
C         6.35091238333397   -3.01998455672150   -5.31392507897573
H         0.63012473071100    0.02756145139057    0.84158765776503
H         0.17964415705600    1.19336854358207   -0.48879283202477
H         0.81679490510151    1.79191382817415    1.15470708397692
H         0.91493600833548    0.08231564719837   -2.05052766439777
H         2.16571718866896   -1.35735848288402   -3.74443560583263
H         5.87336548931952    0.04803264258737   -2.26658682100350
H         4.59246673863019    1.11196138577457   -0.27039595475218
H         5.58067943950489   -0.48171661941109   -4.61162491978162
H         4.12557189820212   -1.36663007359260   -5.22249808577477
H         6.28075179048473   -2.38117452725527   -3.25889604785066
H         3.82353811140916   -3.50902091151637   -4.63263132279266
H         3.96857609857086   -3.34244203463789   -2.80584792135324
H         4.22559116927335   -5.61795825114786   -3.52101336628493
H         5.93360269359658   -5.03130842296817   -3.08408029279047
H         4.42999318334092   -5.81647937265345   -5.56892328809311
H         6.14868355105246   -6.04546361073900   -5.30682024449587
H         4.67460092320390   -3.69663013842764   -6.39586883191091
H         6.10941183030680   -4.51124993365792   -6.99511762729915
H         6.49488792042835   -2.17202937630973   -5.99107969854067
H         7.31996328577284   -3.46391236751871   -5.04128169137343
