35
 energy: -44.219749125183 gnorm: 0.090375316329 xtb: 6.4.1 (025e99ea0bd20707e8cccc6e19fe66a0758c6dd1)
C         1.74374288880717    1.60583027634788    1.03360532315275
O         2.80317293542425    1.56978523482169    0.08651287875190
C         2.97437874343127    0.77530403985739   -1.01355769989079
C         2.05279274944363   -0.16639885309033   -1.47349701889609
C         2.29599312031929   -0.91099406123154   -2.63191163366852
C         3.49462911310932   -0.76691028809815   -3.34422840351002
C         4.49402351509872    0.04203829488608   -2.78722679008225
C         4.20032692043876    0.84219862969205   -1.67037397479408
C         3.65792089937209   -1.68926324252422   -4.53471073250738
C         4.45112089924395   -2.96565728459670   -4.14718241295748
C         4.02948304937954   -4.14638437637393   -5.03755194361338
C         4.99326992709223   -5.28549078145186   -4.71912948613083
C         6.37804916491792   -5.06455596266134   -5.29613212002417
C         6.55621879337853   -3.56372309193366   -5.40381651559618
C         5.98500124487602   -2.87682811291435   -4.17656488562786
H         2.24101356654440    1.36111343499344    1.97788912394495
H         0.98139002168137    0.88001332157938    0.73360590092121
H         1.22140907820572    2.56752780182628    1.06981338964680
H         1.08783322693288   -0.24314798342105   -0.98010870487239
H         1.50136850309153   -1.53204521029894   -3.04159480923412
H         5.44337009609155   -0.01679670398960   -3.31004225985184
H         4.77602598627432    1.70828174892808   -1.35770288983307
H         4.14523893266114   -1.21855524294415   -5.40082876121445
H         2.63020879095705   -2.02975728303175   -4.72054483992960
H         4.14922335103880   -3.31275976833860   -3.14464914061015
H         4.05762721678867   -3.83148158221383   -6.08643086378592
H         3.03053758273753   -4.50949746418640   -4.75419243936666
H         4.58976454681658   -6.25701692256951   -5.03200924286741
H         5.06808911947228   -5.36663837674817   -3.62685122479583
H         6.37659868315468   -5.59523091685269   -6.25690440110455
H         7.14462404767660   -5.46407579772257   -4.62252643738348
H         6.18173354814492   -3.13113163936757   -6.33789158359515
H         7.64532422972334   -3.45425335256374   -5.48668498504636
H         6.37255718509204   -1.85317976360680   -4.16108033287835
H         6.47312908587554   -3.37097714878680   -3.32332757328692
