35
 energy: -44.226707879089 gnorm: 0.094019592230 xtb: 6.4.1 (025e99ea0bd20707e8cccc6e19fe66a0758c6dd1)
C         1.01917138143418    1.26243522915419    0.59902924402410
O         2.23751169260544    1.54814503959701   -0.07527941378115
C         2.72162436021419    0.79150075340772   -1.10668206391467
C         2.09935123875739   -0.35814365877139   -1.59531600791207
C         2.73813427045895   -1.08120663684288   -2.60755560547477
C         3.93781892797702   -0.62939894961093   -3.17457415420066
C         4.59392102481153    0.45835206170081   -2.58316437633052
C         3.98194419897265    1.18551620830726   -1.54847064525611
C         4.78164001370810   -1.32748588586794   -4.22113419389247
C         5.28044073432465   -2.75661715941860   -3.87863192312232
C         4.18563613172312   -3.82113128103622   -4.05992007560702
C         4.76753319274923   -5.21743411515590   -4.25885626349362
C         5.52938545111142   -5.34125176789349   -5.56407965151582
C         6.00486048336525   -3.96858885549663   -5.99484602761395
C         6.44461087677643   -3.12591493028347   -4.81130008169083
H         1.18718820363742    0.25436972291265    0.99198043686306
H         0.21309593792350    1.33269584620244   -0.13805801423269
H         0.84600203678911    1.97875098790557    1.40891187737307
H         1.13701030213671   -0.55749581548263   -1.13203643614586
H         2.23632115919264   -1.91920451501602   -3.08809306619661
H         5.52599498713187    0.83451725088353   -2.99279148526812
H         4.45915743368260    1.93932268435350   -0.92932937956252
H         5.60115874035313   -0.66118928677076   -4.52714598418080
H         4.11142056165211   -1.48137931710778   -5.07774692469921
H         5.61771682570468   -2.73642425611075   -2.82861654089844
H         3.60520376386562   -3.60322647781619   -4.96309149506762
H         3.42929866627249   -3.80794856102045   -3.26128648160689
H         3.97122805260226   -5.97213948099933   -4.22900145854417
H         5.46113670084461   -5.47361725401325   -3.44735209561435
H         4.96588959919053   -5.88137830128512   -6.33572538506591
H         6.35562894791261   -6.04192326222495   -5.39861392982082
H         5.21444780956034   -3.40922316563988   -6.50692866319132
H         6.89952300270900   -4.06886666646773   -6.62295811540255
H         7.04966372993534   -2.24021410342837   -5.02979586895412
H         7.15308624131227   -3.79352288379930   -4.29863230718995
