35
 energy: -44.219059866889 gnorm: 0.092920668438 xtb: 6.4.1 (025e99ea0bd20707e8cccc6e19fe66a0758c6dd1)
C         1.08859744669189    1.28514309758886    0.60865297939837
O         2.42610302540288    1.40920121114491    0.14350376295705
C         2.75081495183163    0.80926149736071   -1.04195040778632
C         2.16863446765392   -0.36323912130384   -1.52566255913260
C         2.71781970274228   -0.97174575110002   -2.65862686363289
C         3.92394441817506   -0.61461570625012   -3.27717745639630
C         4.56898439378040    0.42358257189104   -2.59197272498934
C         3.99054836850605    1.17809155804768   -1.55756351843456
C         4.51642265240060   -1.40261041432426   -4.42725623941045
C         5.17121854628835   -2.73254073617392   -3.96785027313530
C         4.14660159708003   -3.87795078362850   -4.02122405337806
C         4.79366366242315   -5.22869132438624   -4.31217435513615
C         5.51606235633748   -5.17483640649103   -5.64431456672296
C         6.13013044583909   -3.83113722056096   -5.98081498040516
C         6.46957119154151   -3.20632578274572   -4.63967687966074
H         0.67035007431976    0.31398181518135    0.32448532565431
H         0.55442081444729    2.15453258596975    0.21266175913507
H         1.12478225520124    1.43014960646880    1.69339697813883
H         1.26690884221411   -0.87884322259469   -1.20705207550705
H         2.16471762861914   -1.81304790940405   -3.07246485948104
H         5.62486855780739    0.54231018590477   -2.81348769766946
H         4.56689629000225    1.94857088416243   -1.05409825717201
H         5.30496385446109   -0.77555946575521   -4.86795478427935
H         3.65506921872590   -1.57694290602529   -5.08630184971401
H         5.43669787862448   -2.59537937715523   -2.90605805921700
H         3.36294600265202   -3.79758616919428   -4.78249160602640
H         3.65445133698403   -3.97954751356451   -3.04270374611673
H         4.04636778915534   -6.02272986714860   -4.43717453767136
H         5.48489341623179   -5.54552321507704   -3.52029455215024
H         4.79014446087486   -5.30248131464410   -6.45761117502125
H         6.24435640330217   -5.99199130524749   -5.69763826520790
H         5.51290327052417   -3.12548822668299   -6.54734909827884
H         7.01145401239418   -4.08602745165867   -6.58355970086134
H         7.19888392984707   -2.39601154840458   -4.73861670287894
H         7.00929077141545   -3.92058637755568   -4.00014537556567
