35
 energy: -44.215376062976 gnorm: 0.104843008081 xtb: 6.4.1 (025e99ea0bd20707e8cccc6e19fe66a0758c6dd1)
C         1.51477495646781    1.09571215958916    0.94659082258634
O         2.29275464342910    1.66272120488148   -0.09931726467887
C         2.73409876831117    0.89336894071627   -1.14046064443408
C         1.83527680478878    0.05811215387495   -1.80539253728209
C         2.42087217135067   -0.78850301589482   -2.75186686799412
C         3.76861510977643   -0.71909304762985   -3.13088497681195
C         4.59592521456110    0.17671859629572   -2.44058270400400
C         4.09764248998820    0.98693464071642   -1.40659105593804
C         4.36747883260070   -1.45510855359894   -4.31168585686398
C         4.97713881374921   -2.84223715626125   -3.97595515789370
C         4.05801660422579   -4.03835658569650   -4.27456108343488
C         4.94467802464606   -5.27589928614573   -4.37536283443852
C         5.81165756163557   -5.24310537052992   -5.61899815460510
C         6.24210979586952   -3.83107123266807   -5.96062677654792
C         6.32768530196024   -3.00295170851633   -4.69131371737103
H         1.14626126283050    1.95222730875726    1.52053839355785
H         2.15669326731477    0.46676663507432    1.57137895560273
H         0.71853334062620    0.47080143030247    0.52886886060722
H         0.78105075689272   -0.03747660855067   -1.56056699508019
H         1.70773476194807   -1.47888915552725   -3.19882895928247
H         5.61398110694839    0.23164519383156   -2.81287527326843
H         4.70394906995864    1.46863958542238   -0.64524668295068
H         5.21164213524990   -0.85066202430341   -4.67395376212299
H         3.63078212602787   -1.47205735171904   -5.12633508214942
H         5.27476029000550   -2.73157834532941   -2.91960706067939
H         3.50826574165093   -3.76490001728246   -5.18180875853908
H         3.26711723685263   -3.99554920864539   -3.51122532239593
H         4.15398507054514   -6.03423546889165   -4.44096971259966
H         5.58929667232977   -5.29759631266800   -3.48696501786007
H         5.31512656731157   -5.70203674702895   -6.48360231205270
H         6.62829823024810   -5.93165060879653   -5.37404665491033
H         5.53724038838474   -3.47062849284780   -6.71766768936927
H         7.22306553352161   -3.88853308854387   -6.44993795809580
H         6.76473601558122   -2.02291639315447   -4.90767631183196
H         7.05804207631530   -3.50927276772136   -4.04271219550980
