35
 energy: -44.222302855833 gnorm: 0.097414884344 xtb: 6.4.1 (025e99ea0bd20707e8cccc6e19fe66a0758c6dd1)
C         1.11597769554750    1.47948216701421    0.50069245022615
O         2.48259965837233    1.20170683699655    0.22526432387770
C         2.87329876234028    0.64050434344900   -0.95924952221026
C         2.04634658104104   -0.26583484584339   -1.62435750113848
C         2.49562963804464   -0.87786799964517   -2.79868837748017
C         3.80951290618950   -0.75960563164987   -3.27261696157166
C         4.63381952757768    0.08116027141492   -2.51296634455982
C         4.16766688393406    0.84514199839330   -1.42995752818471
C         4.41741255425736   -1.58684247397897   -4.38652205679327
C         5.37754002339970   -2.66665661308128   -3.82023339141385
C         4.57172704387436   -3.96047163484191   -3.61685941756623
C         5.17511527733698   -5.23658269697844   -4.19591434073883
C         5.18657678945287   -5.09037681379440   -5.70516920463842
C         5.78768135496594   -3.75292513265213   -6.08692299033982
C         6.39726244584265   -2.99356178258374   -4.92243213156430
H         1.09001604501943    2.40963847303866    1.07772936069829
H         0.65062103286006    0.68523971818055    1.09281904891932
H         0.52642836689957    1.70950746711443   -0.39291021130196
H         1.01502742010320   -0.42121992298636   -1.31988155762936
H         1.73729967984935   -1.43869845452633   -3.34217525212035
H         5.59853181524511    0.43870067059340   -2.85872864712300
H         4.90660311071570    1.55240909571700   -1.06521228804622
H         4.97626279155589   -0.95233602828675   -5.08958201756176
H         3.55792167154158   -1.91990536936127   -4.98402285818935
H         5.95222191195401   -2.25334989677045   -2.97429396803653
H         3.59076873177566   -3.86921277638003   -4.09591626563914
H         4.42801921738602   -4.12742231257789   -2.53912508103158
H         4.59191077641571   -6.13475794049823   -3.95564965688230
H         6.17443312220715   -5.33735200002302   -3.75267170275612
H         4.15923609965533   -5.12254795441651   -6.09018545348898
H         5.77642237123593   -5.88200235939894   -6.18099369972329
H         4.96737158385273   -3.12796181757252   -6.45622440018569
H         6.45595912114153   -3.77318207563173   -6.95755261415845
H         6.88099478867920   -2.06476147293698   -5.24122411408429
H         7.11540392485212   -3.64739981974872   -4.40548473583511
