35
 energy: -44.216601731480 gnorm: 0.105329000379 xtb: 6.4.1 (025e99ea0bd20707e8cccc6e19fe66a0758c6dd1)
C         1.60654931421161    1.90398949265878    0.55448069477081
O         2.93961320616379    1.51196432883831    0.25459351551168
C         3.00190705666404    0.75776910151705   -0.88469403347220
C         2.08931913154496   -0.20484936019412   -1.31853528559265
C         2.29059232680425   -1.00029023946314   -2.45090261028740
C         3.46652704608542   -0.83508837155567   -3.19573105349340
C         4.46291689899727    0.03055588877142   -2.72530035648027
C         4.22459854978346    0.76393333072198   -1.55089141974901
C         3.84074339116759   -1.62444779647788   -4.43327748001953
C         4.45576505086916   -3.02010307020304   -4.14618710735585
C         3.94497958544946   -4.26758808963278   -4.88614126834609
C         4.99363345076186   -5.36571656226199   -4.73687529197480
C         6.31364658418984   -5.03411890411113   -5.40543051698605
C         6.56143383869523   -3.54450299685222   -5.52987156325178
C         5.97736960740858   -2.87102609565063   -4.30123060863548
H         1.77512707001624    2.86268589202304    1.05579807376784
H         1.13231899091706    1.20756768109667    1.25311798611710
H         0.97013871165282    1.82857382373142   -0.33338179070531
H         1.14405126691212   -0.29537830445544   -0.79057457874014
H         1.51526623046088   -1.65897854839042   -2.83816513406055
H         5.38659355750199    0.24373592287819   -3.25391382621781
H         4.95852981017708    1.39767627307837   -1.06200760926279
H         4.41684800800960   -0.94513168210582   -5.07813282224104
H         2.87438165802245   -1.79213060775414   -4.92793913064595
H         4.28408600647928   -3.32600142020838   -3.10041097200221
H         3.77153055049957   -4.08951747138412   -5.95305697987885
H         3.01133081278569   -4.66514895407694   -4.46154605850066
H         4.60300590810303   -6.34509396821775   -5.04151178786617
H         5.26181872517716   -5.54066683557628   -3.68676877224356
H         6.30520526905342   -5.56365159354046   -6.36679686814841
H         7.01411232088770   -5.57009909327991   -4.75499162441779
H         6.03316700680783   -3.26372446733979   -6.44745990598239
H         7.62074116523253   -3.26864560230106   -5.61216459368480
H         6.30334821969036   -1.82675035922440   -4.26222484673385
H         6.42083889806182   -3.40533043840801   -3.44781404741990
