35
 energy: -44.224927717244 gnorm: 0.094425573421 xtb: 6.4.1 (025e99ea0bd20707e8cccc6e19fe66a0758c6dd1)
C         0.72383047594612    0.46371844351928    0.06427650790556
O         2.07045390061234    0.90306097153995   -0.05513402830122
C         2.77454861050470    0.42071837254094   -1.12390123061819
C         2.29001738599610    0.31625324486781   -2.42850299927997
C         3.13054684419941   -0.08817674460689   -3.47034725846530
C         4.42560412578852   -0.52143366557951   -3.15412168732733
C         4.95093881598103   -0.34688649169572   -1.86687870356755
C         4.11495692712829    0.15571499528716   -0.85574049812453
C         5.19010593896526   -1.07157670793194   -4.34051409564856
C         5.71582443230723   -2.49084506448415   -3.99725969540106
C         4.49958925721594   -3.29676984526009   -3.51155393072084
C         4.85762760093418   -4.77414858044062   -3.64194575430801
C         4.65166956919862   -5.01798922629962   -5.12433598646030
C         5.28738288252035   -3.97330223402276   -6.01895172676864
C         6.32259074163401   -3.21140319561077   -5.21141516015027
H         0.64028854992302   -0.59980224536380   -0.18226121161382
H        -0.06925723429378    0.98069564680642   -0.48503055979191
H         0.49056840929652    0.63689558104747    1.12002470622155
H         1.25767673794533    0.60504186273735   -2.60554324145477
H         2.76580315109054   -0.13767368085374   -4.49479110582560
H         5.96964864630989   -0.68102316246336   -1.69764674580054
H         4.46594272036641    0.26563561155688    0.16603198713696
H         6.01129600386102   -0.42993205141530   -4.69143336617269
H         4.45970665444651   -1.09263885936278   -5.16071891617923
H         6.58756706575804   -2.36152760022897   -3.33390684907863
H         3.56848756471600   -3.02126945030738   -4.01875411164598
H         4.39693411138379   -2.99642097054965   -2.45832639417911
H         4.13240037795478   -5.33999190628522   -3.04324701285267
H         5.88235276008575   -4.88541060677112   -3.26403868384277
H         3.55822395256814   -4.96863134461577   -5.20583365753928
H         4.89991840696525   -6.01045578831153   -5.51724870319328
H         4.49176505269683   -3.27985377368365   -6.31219616127075
H         5.75716585328186   -4.44408296503859   -6.89226205075888
H         6.81278940162508   -2.50353437452624   -5.88737546028203
H         7.07933773764675   -3.94492718846636   -4.89559478924756
