35
 energy: -44.228557812228 gnorm: 0.089035327621 xtb: 6.4.1 (025e99ea0bd20707e8cccc6e19fe66a0758c6dd1)
C         1.07621633248554    0.93613687651872    0.36910945736655
O         2.48395886365637    0.76821826320919    0.26547699243386
C         2.93677683293174    0.39690037809170   -0.97054323128547
C         2.12516994312550   -0.09115865935369   -1.99561000121883
C         2.68588576136631   -0.56273722249753   -3.18670373327884
C         4.07152581988959   -0.56952807816456   -3.39845603754114
C         4.84751825404877    0.04150339103101   -2.40451738924843
C         4.28784347270105    0.59679567368154   -1.24163774510415
C         4.68713707323633   -1.23155914493332   -4.61393330034628
C         5.57796392003869   -2.41957552384760   -4.16274509795147
C         4.98261709125451   -3.50398175605083   -3.24935683883195
C         4.08179358098059   -4.37993242344758   -4.11484446904785
C         4.76628365210494   -5.18234329425324   -5.20432503625972
C         6.12668526147284   -4.55310540203447   -5.42615106407859
C         6.04784263258316   -3.03845960755500   -5.48854272760900
H         0.88792676591113    1.32489283261252    1.37521690901700
H         0.46758180635921    0.02705373901163    0.40263053348055
H         0.67101343464492    1.60875792289512   -0.39404014033000
H         1.05304923227391   -0.22418211060908   -1.88014886737146
H         1.98192083982156   -0.91568474343112   -3.93825848175906
H         5.91392285800682    0.15128326624177   -2.57418203937270
H         4.89001924402032    1.23295485496174   -0.59978229605662
H         5.35986968401345   -0.51936329973663   -5.11334619273880
H         3.93688900072342   -1.58458299314309   -5.33446411788031
H         6.41024475329414   -2.03237491658167   -3.55112468575343
H         4.33128022402491   -3.01509835569399   -2.51665215200400
H         5.82640616706556   -3.94814150558301   -2.70092463787924
H         3.33075616242589   -3.72179306747603   -4.57022207153596
H         3.46806650759571   -4.99272392928580   -3.44173207650948
H         4.12892079429523   -5.18397645829171   -6.09789501482249
H         4.90451192340994   -6.20465155798716   -4.83449193388799
H         6.50416626193297   -4.87498942516313   -6.40276233098018
H         6.85912704151676   -5.02535210210288   -4.75868304929109
H         5.41697912370291   -2.74019972687480   -6.33195697855759
H         7.06562927416080   -2.65629536075191   -5.65744155000963
