35
 energy: -44.226624745400 gnorm: 0.079685919081 xtb: 6.4.1 (025e99ea0bd20707e8cccc6e19fe66a0758c6dd1)
C         1.62915184178817    1.11567089718450    0.89483450716765
O         2.83092506288554    1.35215344846449    0.17338284650169
C         2.97406620995186    0.74312641491738   -1.04286702066098
C         2.04038907930382   -0.06575696941386   -1.69219275273567
C         2.30547509105449   -0.62666735522122   -2.94542927305865
C         3.59389359961190   -0.60634797749762   -3.49719769334908
C         4.54109337938963    0.16591107499208   -2.81172976986642
C         4.21896790122666    0.88701446128324   -1.64978333578422
C         3.94918415736084   -1.60157402691774   -4.58252762126179
C         4.66828285484766   -2.81547791309496   -3.93610624230097
C         3.98071352574193   -4.12880129551059   -4.34486405259638
C         4.97664373170111   -5.28318074504498   -4.40293742495889
C         6.02955580762423   -5.03412082272528   -5.46534181365200
C         6.34871511495710   -3.55735866436630   -5.58001750877507
C         6.17318196464311   -2.85767523789816   -4.24439331773792
H         1.43717729623888    1.97682523340783    1.54321351475948
H         1.77161927100771    0.19488627994928    1.46916065205594
H         0.74579886148892    1.01020393150399    0.25642241740373
H         1.02752996664038   -0.27271120875966   -1.35789396865956
H         1.55663760173556   -1.04748876343382   -3.61410322764891
H         5.58727131741126    0.26910388672872   -3.08176578821289
H         5.02286792756666    1.31190692290894   -1.05606309892300
H         4.55175083326022   -1.08503122642305   -5.34364670329484
H         3.04012389241103   -1.96709455958232   -5.07918328272515
H         4.52640281093378   -2.66894082315312   -2.85208956393965
H         3.65529112323440   -4.01593728171813   -5.38479906368493
H         3.03299365505072   -4.36540703337204   -3.83901769597742
H         4.43235418057929   -6.20940790339794   -4.62749368060006
H         5.47549080876414   -5.45425146004746   -3.44005578797901
H         5.68911119997980   -5.45396616154406   -6.42060551920253
H         6.86158469772302   -5.66600542727045   -5.13451325137642
H         5.66576442084407   -3.11403612548058   -6.31276185224077
H         7.38216436802797   -3.41903206256379   -5.92331016953229
H         6.56975644477567   -1.83738219329436   -4.24950277446574
H         6.60695362939314   -3.50349507854402   -3.46643133426976
