35
 energy: -44.225770310470 gnorm: 0.091730047599 xtb: 6.4.1 (025e99ea0bd20707e8cccc6e19fe66a0758c6dd1)
C         1.20551372566509    1.06033543620405    0.46398359188968
O         2.61016335144322    0.87271567656343    0.35247734381749
C         2.97363961371470    0.41676987724929   -0.88472333060671
C         2.27052502572598   -0.46586371226091   -1.70585490155242
C         2.72490524984393   -0.80800414256141   -2.98334125257849
C         4.06135659972214   -0.54386285472826   -3.31350891044989
C         4.77310101831326    0.32721201789702   -2.47799338715698
C         4.19584763904058    0.90783408655474   -1.33627057108509
C         4.70267281238066   -1.15443292243756   -4.54255936578545
C         5.45353958903507   -2.46869576419861   -4.19986645253898
C         4.55929518668193   -3.53667365448455   -3.54840424898600
C         3.85473882251466   -4.39215336998358   -4.59702056979096
C         4.91930156994205   -5.26952062506201   -5.22653675235344
C         6.27819000044532   -4.60172493857561   -5.28407632618280
C         6.17435387638062   -3.09216698736832   -5.40537599345318
H         1.08611595481613    1.35791785410095    1.51089583131995
H         0.68087756238397    0.14378655061548    0.17643039631188
H         0.84434992824274    1.89077666665368   -0.15159243510933
H         1.26552902932295   -0.82467874495350   -1.50163898279564
H         2.04681914284436   -1.42653511032107   -3.56865464753000
H         5.71393349172039    0.71168984347538   -2.85887072523518
H         4.60837295095772    1.73448008386897   -0.76550631124633
H         5.42519430675615   -0.39870229561923   -4.88320468714130
H         3.99793791360098   -1.33133747835822   -5.36640168078585
H         6.20345111697919   -2.27238287008707   -3.41514410239319
H         3.78178033156287   -3.04817558011582   -2.95095707058157
H         5.05477513374204   -4.20045264529047   -2.82457219912208
H         3.34768136878149   -3.74072078395935   -5.32027826896967
H         2.98687417211321   -4.96262724869265   -4.24117630085062
H         4.60977501588343   -5.53066869145437   -6.24668202911857
H         5.08757850141379   -6.25500590256490   -4.77764990037912
H         6.93029644893272   -5.08723854919158   -6.01817748283411
H         6.80455929087123   -4.87578370446898   -4.36058911991628
H         5.70515061545731   -2.74424673680190   -6.33117031097060
H         7.18568042425934   -2.67266664082562   -5.51356120590113
