35
 energy: -44.224642497858 gnorm: 0.090968767831 xtb: 6.4.1 (025e99ea0bd20707e8cccc6e19fe66a0758c6dd1)
C         0.83840298137762    1.18780717239323    0.23149522781168
O         2.25295993255798    1.27419609236142    0.12085629740337
C         2.80570376359867    0.58255199947686   -0.92162621924309
C         2.05798174310722   -0.21464124842464   -1.78941880549067
C         2.75887461728314   -0.73253190901383   -2.88305096424658
C         4.11756670404837   -0.50208050349661   -3.13943249399246
C         4.84801057902391    0.20952945189934   -2.17844301294114
C         4.17442708253208    0.77932260536023   -1.08505584954552
C         4.83552945813591   -1.16646325756339   -4.29605359267641
C         5.37081707852433   -2.60500323078998   -4.06671526129498
C         4.31026206098451   -3.69407140623864   -3.83475322221806
C         4.98823391579301   -5.05921718846184   -3.90237393080475
C         5.28079135533992   -5.33603582597602   -5.36426973932188
C         5.70790061074776   -4.12163751750569   -6.16342809706703
C         6.27223640346107   -3.07601374626605   -5.21872878081630
H         0.60971084198983    0.11738063397337    0.20460116828606
H         0.44481601115835    1.80150435961574   -0.58487286543279
H         0.45591542396860    1.51957915563415    1.20238986123560
H         1.01059179083545   -0.46184749603673   -1.63997754612426
H         2.15474943814242   -1.26116295125891   -3.61827548765415
H         5.91874752482711    0.22572746779363   -2.35540773242801
H         4.62912730629000    1.46851278154352   -0.37967850591337
H         5.67076787546737   -0.53250039098007   -4.62722302115398
H         4.12664112392979   -1.04826206500081   -5.12681738659800
H         5.95575145887881   -2.51315127710000   -3.13606483820952
H         3.57088404794697   -3.71365476451830   -4.64286181329539
H         3.79046135233116   -3.56889072066515   -2.87341416542091
H         4.40446792165893   -5.93367270801295   -3.58754352671016
H         5.84506069563859   -5.00119477478127   -3.21846172049893
H         4.44343785390972   -5.83825212690267   -5.86558729024530
H         6.02123679004795   -6.14165370831304   -5.30329310261669
H         4.79231038555278   -3.74598258537485   -6.63294775218613
H         6.47612105630768   -4.41185078822580   -6.89186138924700
H         6.59151979713450   -2.27070485137423   -5.88793055682934
H         7.22331184138842   -3.44540365014688   -4.80705830838590
