35
 energy: -44.215400227951 gnorm: 0.111413227998 xtb: 6.4.1 (025e99ea0bd20707e8cccc6e19fe66a0758c6dd1)
C         1.28036686578527    1.31631313829604    0.73297724037607
O         2.43078347406184    1.68851607885489   -0.01447308110279
C         2.81052930374286    0.79611825272436   -0.97888290505764
C         1.92775294763779    0.03238647369439   -1.74379396149226
C         2.47388700254937   -0.73744118512615   -2.77558648665833
C         3.84294958245439   -0.75757950290141   -3.07582909336733
C         4.69506666186771    0.04418406725778   -2.30478473367866
C         4.17706436861688    0.80848847859485   -1.24582919232542
C         4.29183079676304   -1.58927946118803   -4.25964839907936
C         5.05747007276068   -2.90632292584865   -3.96347416926256
C         4.03761934829119   -4.02329579614576   -4.24083483674617
C         4.78121998871906   -5.33232870949645   -4.48848847318429
C         5.85051924893542   -5.20458702157471   -5.55602719423213
C         6.30162676483434   -3.81557375476835   -5.95973971754902
C         6.39044981795214   -2.93333339082434   -4.72765889086439
H         1.18008149049398    0.22609035789869    0.71906716875265
H         0.42299617007806    1.87845842037593    0.34970191513092
H         1.45764191215005    1.53921096818315    1.79028319702399
H         0.85066377922817    0.17290662910832   -1.71925147893435
H         1.79256915071938   -1.22934485031867   -3.46754737853235
H         5.66258587364074    0.23447124435880   -2.75838572382537
H         4.80461638373878    1.62117280666719   -0.89225425744027
H         4.89237065080718   -0.90621303782215   -4.87769165762778
H         3.39349438292366   -1.70448281305245   -4.88124516749045
H         5.19664635420675   -2.89643302028624   -2.86929531151389
H         3.56440593557613   -3.78639549980291   -5.20002729258604
H         3.25946720005199   -4.11932527828051   -3.46928228650512
H         4.08671420041569   -6.15647526289430   -4.69589518410430
H         5.23213984801267   -5.65965898306634   -3.54255992679233
H         5.44516935630792   -5.60026052938906   -6.49615235929406
H         6.65937866764242   -5.89191803546951   -5.28340972958447
H         5.67692733705072   -3.25435418237732   -6.66305615538697
H         7.28818933131738   -3.86039940675180   -6.43899582908212
H         6.82454113931431   -1.94143452028589   -4.88889372881938
H         7.08012386735847   -3.41552728035096   -4.01892429485851
