35
 energy: -44.220637856749 gnorm: 0.099395925662 xtb: 6.4.1 (025e99ea0bd20707e8cccc6e19fe66a0758c6dd1)
C         1.04893315446364    0.96868331100312    0.44427284073525
O         2.45124495140953    0.82856572891647    0.25835871088061
C         3.00195768406985    0.46370602738189   -0.93924721948516
C         2.33034641424572   -0.50386247367113   -1.68785844353989
C         2.91862077110236   -0.96186025808164   -2.87093247665462
C         4.13967135637910   -0.47578805987042   -3.35842896329958
C         4.82408899796639    0.43619455023725   -2.54399789123714
C         4.27235822247830    0.87866673975363   -1.33004321143812
C         4.77727422175124   -1.12347325772774   -4.57029273558482
C         5.56495638104407   -2.41972695404431   -4.24194939509456
C         4.60441233344882   -3.40613986281249   -3.55711543993548
C         3.82491678825502   -4.27980318255508   -4.53534879945973
C         4.80282994973225   -5.20316357087407   -5.23566959181506
C         6.21064182132761   -4.64646350757390   -5.17249978219649
C         6.13601025099235   -3.15832672108062   -5.46256838778384
H         1.03806544740344    1.54202918698237    1.37700686407491
H         0.56197854486870   -0.00952764702212    0.50728339791259
H         0.59120397433220    1.52295381204569   -0.38172593483085
H         1.34412971337587   -0.90161023082674   -1.46505208046159
H         2.41377585137765   -1.73916531897117   -3.44181036397359
H         5.77707132514820    0.86537974034105   -2.83671149043630
H         4.82659962207287    1.38314254604655   -0.54415949258647
H         5.35138027204353   -0.36483789565099   -5.12172718769238
H         3.99856859776545   -1.39885063766774   -5.29448022588027
H         6.33734718174591   -2.09041339498876   -3.52664508652571
H         3.89228722660847   -2.92232730048729   -2.87968936355812
H         5.07883546340164   -4.05531334827572   -2.80642759099088
H         3.23379209832606   -3.61187930162536   -5.17489759884339
H         3.00837629763206   -4.77739186834762   -3.99597715548377
H         4.54140579960551   -5.35922129671175   -6.29018596760199
H         4.78929043547232   -6.20930954477183   -4.80152131567133
H         6.79067176922147   -5.08690938433648   -5.99069504371793
H         6.77313177278554   -4.98323477267948   -4.29205010889375
H         5.54779367468532   -2.86021946500027   -6.33631242601557
H         7.17573260384659   -2.86855249687943   -5.67581542270720
