35
 energy: -44.217745930488 gnorm: 0.118754630959 xtb: 6.4.1 (025e99ea0bd20707e8cccc6e19fe66a0758c6dd1)
C         0.80032818059585    1.12035597651178    0.18524658410403
O         2.19713979875659    1.20588055472775   -0.06430947983144
C         2.77006234551328    0.51647197735941   -1.09733544945282
C         2.05917833670948   -0.42916544599214   -1.83766175366222
C         2.83431712071345   -1.01812642927720   -2.84154305351272
C         4.16359242560848   -0.69197960688804   -3.14409704851966
C         4.82710248536251    0.14860073341477   -2.24042850282338
C         4.13881843679740    0.75886158400332   -1.17848631460450
C         4.92535049953658   -1.17299033839775   -4.36188217789287
C         5.62442040925538   -2.52629870207267   -4.06458787212181
C         4.62746864094326   -3.54442124756835   -3.48651651984042
C         5.17290076026591   -4.93567554218583   -3.79434227936371
C         4.91275430731705   -5.14340665996336   -5.27371017688416
C         5.29018957194518   -3.91320513832394   -6.07370173128404
C         6.30464028442022   -3.05857960877823   -5.33561927188975
H         0.63613470299315    1.82143439821665    1.01008954282018
H         0.64803025167419    0.10543352472857    0.56567996996675
H         0.19244715553986    1.32014554289205   -0.70333124385662
H         0.99451123518706   -0.61295371796262   -1.72287869671120
H         2.27666174904718   -1.69170401276850   -3.48983837858874
H         5.89960662691584    0.19102800864908   -2.40164663597639
H         4.75127776964901    1.37265045925259   -0.52469020196077
H         5.60517396109492   -0.40564286068255   -4.75965500698976
H         4.25961859424885   -1.40689356087314   -5.20375685764494
H         6.41135569149547   -2.31411627732906   -3.32134719722937
H         3.71325940284621   -3.38376744702686   -4.06833666214821
H         4.56634873186312   -3.40199677776314   -2.39747318105052
H         4.62386455273571   -5.71299503926822   -3.24761838313082
H         6.21627054819602   -4.91849274877474   -3.45325742088502
H         3.88421957309086   -5.51953071798489   -5.34684279663199
H         5.46240934883634   -6.02862123099867   -5.61322786901859
H         4.33797204777841   -3.44483545451582   -6.34533092949265
H         5.63042466371929   -4.22568863352407   -7.06949066729102
H         6.71835895644843   -2.24965174147865   -5.94616647431453
H         7.27757436336905   -3.55243001636391   -5.19427918383003
