35
 energy: -44.225733687118 gnorm: 0.103207086423 xtb: 6.4.1 (025e99ea0bd20707e8cccc6e19fe66a0758c6dd1)
C         0.78852336241867    1.11365946460282    0.28582514330764
O         2.20341760901380    1.14641012101322    0.15287010189956
C         2.71157646750170    0.44713584537276   -0.90706250195381
C         2.05917889377502   -0.16146053371357   -1.98021537415840
C         2.75304747855375   -0.57075275347863   -3.12324603794130
C         4.15216248358522   -0.62750531287177   -3.18758785583536
C         4.82253779897628   -0.03661551563225   -2.10828996849128
C         4.09355687140563    0.53569019429439   -1.05238873014140
C         4.82863617219527   -1.15180859157931   -4.43744254371792
C         5.45305044163068   -2.54609241376854   -4.16430224702568
C         4.40669281588915   -3.54365224411621   -3.64021929567610
C         5.16008528489614   -4.86223251998094   -3.78714530840224
C         5.31071741964864   -5.36448077471614   -5.20996448928472
C         5.57391515408293   -4.16642283716334   -6.09947209541018
C         6.25083543550583   -3.00456585775944   -5.39510851453204
H         0.35851647345064    0.20727033100316    0.72444703898632
H         0.23435008438112    1.38917412443595   -0.61693476377868
H         0.69159273533398    1.97689427264301    0.95248539543586
H         0.98440399025989   -0.32035219129348   -1.98925268923115
H         2.25478333498740   -0.96782210550020   -4.00587952507269
H         5.89532228122039    0.12523158275371   -2.07673907218518
H         4.61371946591330    0.93870818326366   -0.18850218498148
H         5.70615359525727   -0.53945105416843   -4.69079356765530
H         4.18725834085722   -1.12529498678716   -5.32884266197984
H         6.11583828318857   -2.42602312297934   -3.29080876289473
H         3.51240695251173   -3.59939236178251   -4.27049596894268
H         4.08445173728429   -3.36342248181565   -2.60401772931336
H         4.54354933023309   -5.58994735290481   -3.24410947545060
H         6.14678158889623   -4.75465815234568   -3.31798349939135
H         4.46680635642558   -5.93411407115812   -5.61988327585819
H         6.21281172378343   -5.98401720009795   -5.15166998468115
H         4.61964579521340   -3.78225994476263   -6.47584911320379
H         6.16949324918936   -4.51286286335282   -6.95402899755085
H         6.26459164495155   -2.13178957751315   -6.05568981405615
H         7.27798828403649   -3.27785725809434   -5.11096980607012
