35
 energy: -44.216740846414 gnorm: 0.078010758026 xtb: 6.4.1 (025e99ea0bd20707e8cccc6e19fe66a0758c6dd1)
C         2.52090757779031    2.15902354053863    0.73088679264025
O         1.72308806772497    1.39934236529422   -0.16746943672606
C         2.28316674128508    0.48554452903636   -1.01714729378246
C         1.52782473590447    0.17318113255170   -2.14832227165037
C         2.04890689740663   -0.53510437296681   -3.23565748986376
C         3.37004337318427   -1.00358643429906   -3.23820870375731
C         3.99979819455743   -0.96045379468267   -1.98721462022093
C         3.48786719006626   -0.20568570251039   -0.91851156672729
C         4.02177347992785   -1.47113814609260   -4.52323422516839
C         5.03878023788884   -2.62449986811151   -4.31351974743591
C         4.38642797900039   -4.00525839350801   -4.13297818183626
C         5.50143165804924   -4.99650014162612   -3.81352865764130
C         6.61498238338851   -5.07870837536241   -4.83949374349094
C         6.23102820368117   -4.13254111405493   -5.95895180484316
C         6.04438116354549   -2.70673641888812   -5.47263440444741
H         3.02888674797678    1.52085120047217    1.46131788494798
H         1.90176139765479    2.90820461555776    1.23425298686433
H         3.25184397164498    2.74136395714857    0.16025784596692
H         0.55222050886690    0.64598358864150   -2.21990138212322
H         1.52875238916139   -0.62790957684147   -4.18739253333533
H         4.93076826676771   -1.50112198745723   -1.84926853386299
H         4.08185792196802   -0.09966284594097   -0.01561248866649
H         4.48539687490044   -0.65229049828046   -5.09222209546095
H         3.18133335544287   -1.69070938592745   -5.19562662695574
H         5.45335274644411   -2.41019543512856   -3.31407066546537
H         3.65133802388797   -4.26470405391388   -4.90267523641915
H         3.87986461144518   -3.89457575213453   -3.16283454516354
H         5.11677182638074   -5.99661523157286   -3.57608393406383
H         5.83695008564864   -4.63519968405271   -2.83263926135396
H         6.86618282265893   -6.05697233249182   -5.26914401451414
H         7.54914641725096   -4.76046747532163   -4.36298765544647
H         5.29949342277379   -4.49013724897802   -6.41087962264236
H         6.94310856229337   -4.14590355592788   -6.79427477563082
H         5.59830940134847   -2.16898668423267   -6.31533276502605
H         6.98941619514997   -2.21196443069573   -5.20323611746592
