35
 energy: -44.218019407375 gnorm: 0.094863761952 xtb: 6.4.1 (025e99ea0bd20707e8cccc6e19fe66a0758c6dd1)
C         0.99559340040768    1.18140925707886    0.56998549418246
O         2.37565612457082    1.07581272917250    0.24602312500318
C         2.81375597200996    0.55406012999741   -0.93994053417760
C         2.13169953486592   -0.38923654244729   -1.70978443306034
C         2.78202940284291   -0.91886478619956   -2.82873832394827
C         4.04698550622222   -0.51987107903049   -3.28214055164065
C         4.59955120773661    0.59998879542583   -2.64651272317222
C         4.03699446655193    1.00857822409669   -1.42566915472620
C         4.69675325328213   -1.27149314911856   -4.42560609126544
C         5.21911573901415   -2.66526387579660   -3.98621246406170
C         4.11037465399527   -3.72894150643342   -3.92347545335303
C         4.80451067893815   -5.07291010178874   -4.12288708101145
C         5.48914848897047   -5.31184571036190   -5.45462977814011
C         6.03634068730958   -4.04791798835658   -6.08622067459264
C         6.34825218803655   -3.12613172289387   -4.92119618830817
H         0.64336181853331    0.37569657414642    1.22236294361289
H         0.23660544374830    1.27178593998433   -0.21344359068018
H         1.04696181799371    2.12126477038157    1.12948408260095
H         1.11272728585737   -0.67027413694557   -1.45842266084795
H         2.24398802511114   -1.64644009543545   -3.43381579200354
H         5.57961886286196    1.02124985862012   -2.84667012873902
H         4.48339957945441    1.72335276400705   -0.74075134174601
H         5.58619562547046   -0.71689595536828   -4.75805088151668
H         4.00574605798424   -1.35775493929953   -5.27515339465538
H         5.60646816339332   -2.62960742818914   -2.95403906031429
H         3.32143299821959   -3.60219664103399   -4.67288165251791
H         3.60132165140642   -3.80990479542388   -2.95170091675740
H         4.12675522099565   -5.89521868381369   -3.86015240365264
H         5.54654401226550   -5.16565543345126   -3.31912127041840
H         4.81875029033294   -5.76140726266963   -6.19837842640676
H         6.31223643638099   -6.01862513769478   -5.29975293634954
H         5.31567021838087   -3.48837521795509   -6.69236979725879
H         6.99483776917264   -4.20115360724381   -6.59886445582462
H         6.64245407000178   -2.15618977161456   -5.33466104335593
H         7.18737430967029   -3.47586844677361   -4.30149928101305
