35
 energy: -44.218122414878 gnorm: 0.094827023225 xtb: 6.4.1 (025e99ea0bd20707e8cccc6e19fe66a0758c6dd1)
C         2.05605319807346    1.44872771047986    1.05711018803062
O         1.80716206694051    1.51227364687151   -0.34099227534868
C         2.44490340044209    0.62687917134259   -1.16563139827824
C         1.71197743474161    0.24826681588059   -2.29130518294071
C         2.32248569446568   -0.38006475132357   -3.38124644423636
C         3.67522367453505   -0.73989546874640   -3.30704859775222
C         4.28257428273713   -0.62167722658718   -2.04983445316560
C         3.71363235721823    0.08501782130483   -0.97709887488809
C         4.29091197457301   -1.39476998599813   -4.52635765273126
C         5.19891062015400   -2.65099254768055   -4.44909524840329
C         4.39065318452272   -3.79576977242134   -3.81596188668124
C         5.49606764419886   -4.80702613154078   -3.52741231321593
C         6.50332334504385   -4.82841733086956   -4.66069786404185
C         5.96181676847365   -4.45775320649411   -6.02642784638794
C         5.57485592259947   -2.99548670398543   -5.89876133443446
H         1.98998828508460    0.40755535269264    1.38942315075916
H         1.26046873007505    2.07822995390789    1.46791924865282
H         3.04256701376789    1.88313981758735    1.24967805037768
H         0.65893685828939    0.51049661838439   -2.34431845394543
H         1.64368201718306   -0.48568006604035   -4.22566581326506
H         5.29695835939388   -0.98098211938708   -1.90847880200396
H         4.28824782684004    0.10411904867526   -0.05582542279210
H         4.78225133547485   -0.57280279816190   -5.06687674582055
H         3.45156131610677   -1.67926849570922   -5.17536746640222
H         6.02713032940871   -2.52260376509387   -3.73197346944418
H         3.70724126224310   -4.21284108962190   -4.56369346401067
H         3.84955374588734   -3.43817512191008   -2.92749510113168
H         5.12119058586413   -5.82941592822438   -3.39044636388043
H         5.86171848955721   -4.54039201091809   -2.52718216539259
H         6.82953037652775   -5.87073519800334   -4.55177668425905
H         7.39934293560233   -4.21600042462152   -4.50873671456094
H         5.05211479041533   -4.99994088188754   -6.30633074258950
H         6.71447544947100   -4.67606914314429   -6.79509195945041
H         4.72068961269246   -2.71357206100519   -6.52263581635907
H         6.45314804491362   -2.40800509738445   -6.20524832885101
