35
 energy: -44.218489771124 gnorm: 0.107832097346 xtb: 6.4.1 (025e99ea0bd20707e8cccc6e19fe66a0758c6dd1)
C         1.00790758043383    1.05347151283506    0.55493632647047
O         2.36780999120368    1.17321180806523    0.15870019850902
C         2.80556397566690    0.68999490098308   -1.04360589602378
C         2.17415101260716   -0.26770651446839   -1.83846118518622
C         2.67096202943600   -0.93136592766219   -2.96461741689419
C         3.95201028116466   -0.53133199369899   -3.36930468799492
C         4.71686065954805    0.29634414621208   -2.53660192647242
C         4.08813093046293    0.99454555200371   -1.49205025678210
C         4.56865913233794   -1.33752138612131   -4.49378244281322
C         5.27039655674995   -2.58478747533739   -3.89343413843296
C         4.24128013530315   -3.72334172895572   -3.79717174802240
C         4.80696004190662   -5.11913137458646   -4.04134160065827
C         5.34017250837968   -5.20274801241279   -5.45839858404152
C         6.03169262080233   -3.93735053821764   -5.92359619514860
C         6.43896561032313   -3.00067125613558   -4.80064410407609
H         0.82937743757261    0.00946054782771    0.83243308081185
H         0.26648905828221    1.42981736064937   -0.15686011676980
H         0.96542874357880    1.78947389902234    1.36456698674270
H         1.29152000826952   -0.56195330566462   -1.27734561534948
H         2.02728115876025   -1.57303036027939   -3.56371240462548
H         5.70454465560162    0.57672790286181   -2.88862717890450
H         4.73559295752008    1.60242045296704   -0.86709136242571
H         5.28102185738515   -0.69391590454068   -5.02998824582780
H         3.80855968484471   -1.67125862595272   -5.21317869279975
H         5.74385500439808   -2.46450869820537   -2.90446227841370
H         3.43986619604861   -3.55603483842392   -4.52507761833007
H         3.81407797347685   -3.69173469054992   -2.78399107448823
H         3.97232365324031   -5.82427186666480   -3.93774448574309
H         5.56461830812998   -5.42570832312980   -3.30838923549061
H         4.56382734489444   -5.33785400750883   -6.22242472508870
H         5.97819773285694   -6.09355572641971   -5.47797394010782
H         5.39118532196213   -3.41576421781851   -6.64301881599334
H         6.90577089821450   -4.23045395978887   -6.51948125770566
H         6.98291837328098   -2.12295798570669   -5.16400360901348
H         7.16954597077478   -3.53750376053635   -4.17732302165658
