35
 energy: -44.227070782721 gnorm: 0.094333209841 xtb: 6.4.1 (025e99ea0bd20707e8cccc6e19fe66a0758c6dd1)
C         0.80302995700803    1.02787258707693    0.10402493833540
O         2.17562534345667    0.66612371626561    0.18015008411440
C         2.68881472820323    0.20050871480160   -0.99904726403170
C         2.01422938828476    0.05174624390568   -2.21167810802907
C         2.70532361740671   -0.29806132140466   -3.37594451183253
C         4.07795113513041   -0.58068092087431   -3.34588856143209
C         4.76965110697556   -0.36498426539259   -2.14652879914965
C         4.06758962574392    0.00639361622613   -0.98762302897354
C         4.84707168718018   -1.09200448199163   -4.54657549172737
C         5.69641207904068   -2.35527077959232   -4.24440777748246
C         4.91371456818477   -3.32805916243600   -3.34678859174038
C         5.53296908316738   -4.71265932658696   -3.51185717822792
C         5.07918074139000   -5.17103205522035   -4.88420128711760
C         5.09641517320433   -4.03746066472941   -5.88946668854888
C         6.16002976268310   -3.00680591152657   -5.55669717949647
H         0.12711582314904    0.16708097468569    0.13587204855739
H         0.53676428089031    1.67048946073614   -0.74104188956599
H         0.57964757414046    1.58064166625080    1.02247603987700
H         0.96816086813829    0.31137417340584   -2.34880324732116
H         2.12512925460043   -0.33593065600760   -4.29622354800285
H         5.84457335547984   -0.22504494818015   -2.20144358135243
H         4.74540521761382    0.10367293484362   -0.14477349895715
H         5.47386356030710   -0.24907096348542   -4.87184515879931
H         4.09787967244658   -1.32130451853012   -5.31650762344622
H         6.57472884288402   -2.07158826130076   -3.64043831636470
H         3.88464856099419   -3.45766601161907   -3.69939044711026
H         4.78187547872292   -3.06684802132230   -2.28640047472126
H         5.21937110959486   -5.44519689510431   -2.75712649918933
H         6.61834278955424   -4.67163108526493   -3.35205966882235
H         4.09279389860346   -5.65105753886447   -4.84789814487115
H         5.74474880558953   -5.98950348597537   -5.18105383276869
H         4.12576898369895   -3.53212110350081   -5.93793006456702
H         5.17956359520760   -4.59341411774306   -6.83233653938049
H         6.36405780860979   -2.26412607699271   -6.33457540854877
H         7.10335514242155   -3.54623372987162   -5.38459016149988
