35
 energy: -44.219949569041 gnorm: 0.091238613017 xtb: 6.4.1 (025e99ea0bd20707e8cccc6e19fe66a0758c6dd1)
C         1.86126539882374    1.31615733977734    0.56427568004996
O         1.33216987828273    0.56313549609416   -0.51909471615321
C         2.22073541848608    0.11742658261904   -1.45848916527587
C         1.69964336260564   -0.45349202695191   -2.62046346349379
C         2.51747764148361   -0.91654150551894   -3.65594650204599
C         3.89936563310590   -0.85449684058910   -3.42918767573413
C         4.43696048009356   -0.34322059915773   -2.24047991089376
C         3.59399018527147    0.15016475011951   -1.23060544553060
C         4.98693178333022   -1.21809592612826   -4.41895679544767
C         5.94842035073790   -2.32534737699010   -3.91096059469747
C         5.20269347946900   -3.32441544128306   -3.01073436130930
C         4.90165459106698   -4.69081839251034   -3.61914209139561
C         4.48513547452745   -4.39689149343842   -5.04724452944919
C         5.73480505883769   -4.01167259755614   -5.81260195043075
C         6.60897827530109   -2.96847177486405   -5.14043084724999
H         2.49944094649113    0.67275609218165    1.17876991246112
H         0.97155780498297    1.57119469834951    1.14854286850249
H         2.42171923618031    2.20621412723539    0.25981520676545
H         0.62406217488278   -0.59819809001869   -2.67198625551659
H         2.15354898351877   -1.51974417248508   -4.48581129556373
H         5.49027256008720   -0.41928078894144   -1.98987064118517
H         3.89879502496373    0.43797598323502   -0.22883137557900
H         5.71950587101543   -0.44276134915447   -4.68615863338009
H         4.52737134692342   -1.56289623701109   -5.35521510558686
H         6.76727600541838   -1.84518649674583   -3.34916332861074
H         4.23185630914375   -2.88420722169596   -2.75815810792726
H         5.79671012613596   -3.48205236051059   -2.09841282157206
H         4.05327665793560   -5.08908851073433   -3.04799484987671
H         5.62083668264344   -5.51474537073186   -3.71493402720188
H         3.75199390885869   -3.58133669209738   -5.00169019719636
H         4.01104167812865   -5.24702583847905   -5.55073676582838
H         5.43863153293132   -3.54652655480114   -6.75906441555589
H         6.29688828101865   -4.91775298191744   -6.07352769851454
H         6.78235992218453   -2.20146362699330   -5.90196392421082
H         7.56827351125658   -3.43306679572337   -4.86772205339318
