35
 energy: -44.224719208661 gnorm: 0.096996357490 xtb: 6.4.1 (025e99ea0bd20707e8cccc6e19fe66a0758c6dd1)
C         0.81921713054591    1.29466720835174    0.15635259644884
O         2.15786356047898    0.81673707239831    0.13950323024092
C         2.71379163579983    0.29805516237054   -0.99741371541549
C         1.98401462339018   -0.08616065945262   -2.12323473946595
C         2.71331354323047   -0.47205343510742   -3.25226207075731
C         4.11365018902846   -0.53343140768912   -3.26543635664861
C         4.78561588258206   -0.31236239345532   -2.05587926067542
C         4.10523292354352    0.25630213460100   -0.96612050236790
C         4.83172845595912   -1.11689572937447   -4.46484468113710
C         5.60521890127701   -2.42199900588567   -4.13782151739240
C         4.61871937193410   -3.44313100202342   -3.54726164265975
C         5.29716795911175   -4.80912115221758   -3.58750879137908
C         5.27075652283203   -5.30803803817417   -5.01920084882719
C         5.37362103888197   -4.18005785159325   -6.02563973905137
C         6.13947547455695   -2.99859871698649   -5.45829323346269
H         0.09816702722542    0.47957264567342    0.03575426182666
H         0.70024238157340    2.07655793977506   -0.60027392627298
H         0.70576295408314    1.67866380997741    1.17550937078172
H         0.90441631103713    0.00244488344508   -2.20741237586123
H         2.06648510900623   -0.54414648022822   -4.12483795945006
H         5.86748305898646   -0.33806267902469   -1.97245618223565
H         4.75997444427274    0.49870053466934   -0.13434580764793
H         5.44706259919833   -0.31409114064037   -4.89620765053817
H         4.11645649103610   -1.27061493494610   -5.28424635099545
H         6.41179059315958   -2.28469269326878   -3.39803485658429
H         3.77261838783310   -3.39916931528992   -4.24172787559675
H         4.19889951540816   -3.23063389273896   -2.55296187255864
H         4.86943411346487   -5.52011629356416   -2.86910567137690
H         6.29721629926986   -4.72237058098842   -3.14295024696363
H         4.35236505009377   -5.90129500591012   -5.11566151323855
H         6.11036308922286   -5.99896883069140   -5.15585083351581
H         4.42521069619315   -3.86129256280062   -6.47148422760312
H         5.95620768878559   -4.58730606798560   -6.86214625052982
H         6.22524811092985   -2.21606807098717   -6.21894043444191
H         7.21622921768423   -3.21957648763659   -5.41100506135777
