35
 energy: -44.228929466237 gnorm: 0.083148450764 xtb: 6.4.1 (025e99ea0bd20707e8cccc6e19fe66a0758c6dd1)
C         1.61305665671068    1.66105714603730    0.75342317457670
O         2.91397367313881    1.59761418484779    0.18398021675652
C         3.07868957964960    0.79070435345545   -0.90800524806713
C         2.15055317618515   -0.17666122864645   -1.29586588536567
C         2.45742888275214   -1.03085907361755   -2.35966387355811
C         3.54389100886767   -0.83544721451559   -3.22354913766641
C         4.41155917085484    0.20195905179457   -2.85697319940844
C         4.21705300468613    0.96184507870571   -1.69137678528888
C         3.70215964002363   -1.75106681858021   -4.41989317994780
C         4.40527019362571   -3.09400180690387   -4.08719613846356
C         4.00905314920397   -4.17506380325521   -5.10649483904278
C         4.96219990143473   -5.36011274046959   -4.98397264418844
C         6.33058166607069   -4.98155962055984   -5.51650118764458
C         6.61293883662426   -3.51346462344692   -5.26990200723655
C         5.93734045146754   -3.00242463757114   -4.01027281100974
H         1.39097317177612    0.96793037143581    1.57140272967990
H         0.82528737623878    1.44053685260277    0.02624908184673
H         1.39935632219119    2.67244063146208    1.11458986712986
H         1.23459310982333   -0.25724274107009   -0.71708000872506
H         1.83368330537990   -1.87783178247741   -2.63993477436404
H         5.36779627869462    0.27967922267729   -3.36454255411704
H         4.96980917780575    1.68388252827450   -1.38919698255624
H         4.25099048058424   -1.23390351154494   -5.22022569341202
H         2.74730215984606   -2.08573080155738   -4.84757281924826
H         3.98273886136717   -3.47876816398383   -3.14373583716038
H         4.06943420029310   -3.72257114247411   -6.10233989262500
H         2.95140043291496   -4.41863292088132   -4.92738431033397
H         4.40210695846458   -6.06851718916784   -5.60769726994958
H         5.03609245035617   -5.75681582851628   -3.96298234402614
H         6.46603190670817   -5.14474781228277   -6.59340611944307
H         7.04856021888978   -5.60170725885180   -4.96793809311459
H         6.21705075719383   -2.94831078067617   -6.12063378522144
H         7.67245090643353   -3.30440783917700   -5.07310035000331
H         6.13990581869016   -1.94342594191038   -3.82110528252667
H         6.29350854526000   -3.57963267724693   -3.14399275531229
