35
 energy: -44.223481893524 gnorm: 0.097338529805 xtb: 6.4.1 (025e99ea0bd20707e8cccc6e19fe66a0758c6dd1)
C         1.05842812218205    0.44853527764311    0.49297285923732
O         2.37567919870246    0.87171102196274    0.16671027869836
C         2.85986990880032    0.57199947341888   -1.07683281181498
C         2.09726272401915    0.14882860874181   -2.16634001375382
C         2.69007357452823   -0.32192127156420   -3.34212174671953
C         4.08690204355562   -0.40275055967280   -3.42709456460778
C         4.86025239529565    0.06673798175842   -2.35707236784608
C         4.24714518877831    0.56736621992382   -1.19632029575099
C         4.79965204874356   -1.03181670476589   -4.60646326865017
C         5.47788820288225   -2.36913017147711   -4.20632007367470
C         4.46096068752029   -3.33142662325937   -3.57031944640330
C         4.88248275564615   -4.79738043935688   -3.60408270255457
C         5.16452541313724   -5.28274983873645   -5.01270836381789
C         5.37395721346782   -4.14359981560932   -5.98959893866526
C         6.27771810712373   -3.18829433643946   -5.23139814271162
H         0.96515165723597    0.62390420768667    1.56971869637426
H         0.94607953001526   -0.63854527459430    0.43276099553077
H         0.41738675465539    1.09000649168149   -0.12069351342567
H         1.02704907415256    0.00614299472626   -2.04487855511590
H         2.15684864938938   -0.66465747498658   -4.22709416168458
H         5.94398430675285    0.04357748579784   -2.41225597343783
H         4.86155089231409    0.90349104890155   -0.36636950507616
H         5.51712801383615   -0.39127674588565   -5.13951309399997
H         4.10074405368554   -1.22203120573130   -5.43230146535840
H         6.23001242091241   -2.13960436486387   -3.43280712245338
H         3.48714564338765   -3.19914664232234   -4.05435365631417
H         4.25902224271655   -2.99548952315115   -2.54250482553999
H         4.05562175495670   -5.38630123028747   -3.18689382037998
H         5.71757692265863   -5.05757662866782   -2.94062937585174
H         4.20878739770605   -5.78832794205859   -5.20153901266968
H         5.90831626480292   -6.08436236297357   -5.08475205833625
H         4.41699399740249   -3.65859281585719   -6.21064284548472
H         5.75083475467338   -4.48473688866828   -6.96252764767968
H         6.71265851215492   -2.43707296737529   -5.89832288992924
H         7.05081829044989   -3.71548027254874   -4.65272978912412
