35
 energy: -44.219043647866 gnorm: 0.088506179058 xtb: 6.4.1 (025e99ea0bd20707e8cccc6e19fe66a0758c6dd1)
C         1.22938342665567    1.42641405453782    0.73365099945413
O         2.25194738932566    1.75609439858190   -0.19712780625819
C         2.75938105893212    0.77515958312219   -1.00393944254193
C         2.16478737811704   -0.38756490763999   -1.49607697001394
C         2.78176316810293   -1.13697816230591   -2.50266202687545
C         3.88444475671135   -0.69938620636515   -3.24931462466080
C         4.51915403830790    0.42360929060764   -2.70208250403731
C         3.95185689613844    1.13073398445749   -1.62875913176200
C         4.55480945928662   -1.43262223767371   -4.39282824744232
C         5.14414142551043   -2.79365010702442   -3.93586310065972
C         4.07781013062255   -3.87417527294838   -4.18092588976999
C         4.75777593530811   -5.22609197640391   -4.37537161067799
C         5.46373352398452   -5.24459845765694   -5.71725057803390
C         6.30928796902954   -3.99358728453294   -5.84314090436429
C         6.48478686852568   -3.25500468500880   -4.52862325927573
H         1.02686456505013    2.35307128194358    1.28057773076605
H         1.61847188979610    0.62225363704173    1.36604960157712
H         0.34965268281846    1.01830489062966    0.22519599148084
H         1.32810347660542   -0.77799030702796   -0.92336641426462
H         2.19332520004504   -1.97343304481801   -2.87556561627326
H         5.47278855957939    0.76439712599042   -3.09259670249948
H         4.44270497576658    2.00326187671286   -1.20797910961871
H         5.27759880553579   -0.66911756158251   -4.71507271739488
H         3.81333722280135   -1.66380565691649   -5.16963956216696
H         5.30136088874101   -2.63368834300447   -2.85586796260515
H         3.44039375098081   -3.77720295876066   -5.06658924514355
H         3.47979671020453   -3.95889595700008   -3.26155756215048
H         3.93748959710051   -5.95210242796267   -4.30745604245095
H         5.42302515580990   -5.42649233592463   -3.52534936766757
H         4.74216039723480   -5.27533131195421   -6.54374262327361
H         6.08236664051674   -6.14782224654823   -5.76702626326294
H         5.84042019660967   -3.20382362078175   -6.44005560842031
H         7.23915217290768   -4.16963518115125   -6.39934334704217
H         6.99856260552968   -2.33665928671918   -4.83023815006624
H         6.98373325745207   -3.85906987008331   -3.75620904308238
