35
 energy: -44.215584622729 gnorm: 0.101485714161 xtb: 6.4.1 (025e99ea0bd20707e8cccc6e19fe66a0758c6dd1)
C         2.74350812085128    1.01280389152850    1.03287803241242
O         1.91569839404437    0.53946783756050   -0.02133229865315
C         2.54946199082985    0.17184443009522   -1.17626252382562
C         1.66370408289118   -0.30151318445329   -2.14530058841541
C         2.13771178382734   -0.62755810388976   -3.41986101075184
C         3.49584452562950   -0.46202621388326   -3.72475144842272
C         4.32740158656783    0.13639818354468   -2.76880225630780
C         3.89916463395558    0.37449509148758   -1.45206483745654
C         4.13750557908416   -1.13428819303702   -4.92098815334178
C         4.93254903781382   -2.42931587679236   -4.60581302012186
C         3.90909056970493   -3.45989090683661   -4.10073807106257
C         4.69816577930518   -4.64223272956481   -3.54641909032534
C         6.16194014562213   -4.79570740202266   -3.91134085638527
C         6.61322649351604   -4.25522441405743   -5.25300341350562
C         5.93338587337830   -2.95617873380940   -5.64614181785321
H         3.43305799802621    0.20119075380384    1.28712484138215
H         1.94718361204830    1.19012884345625    1.76254572727855
H         3.26815070925654    1.94974691650755    0.81864990221542
H         0.63115349045916   -0.51136826969473   -1.88021672459559
H         1.41693263702648   -1.01259480965047   -4.13902529234917
H         5.31736921171825    0.46038240640699   -3.07385114057915
H         4.53007240182504    0.72240103064931   -0.63953211243449
H         4.86316049948668   -0.43173047269365   -5.35577880407141
H         3.37951789809086   -1.47875201369828   -5.63755079853493
H         5.57384707400574   -2.27950983136152   -3.72094568630902
H         3.23332749076628   -3.72507524190149   -4.92117964722540
H         3.33424217170840   -2.92176733287270   -3.33261822024521
H         4.22679154319661   -5.54925316531513   -3.94603595021484
H         4.63294667588601   -4.67072833795133   -2.45088766170094
H         6.42569486784872   -5.86030808844302   -3.95329572005256
H         6.81850507253031   -4.43201969074456   -3.11281001262834
H         6.33995379964305   -5.00356110001221   -6.00479130495960
H         7.71024360964282   -4.26822472396793   -5.29023100502940
H         5.26093364391285   -3.13042668868649   -6.49215657480956
H         6.63690091957885   -2.20649841227631   -6.03794784028197
