35
 energy: -44.215809905439 gnorm: 0.100261211444 xtb: 6.4.1 (025e99ea0bd20707e8cccc6e19fe66a0758c6dd1)
C         1.08050090788054    1.24970105877630    0.77112197144604
O         2.14856727905374    1.53913245865994   -0.12114427839706
C         2.68375838354810    0.68353590654412   -1.04428679044603
C         1.96815367702249   -0.17220955415147   -1.88290402135029
C         2.65100319168108   -0.88686915442414   -2.87208097659980
C         4.01621405881915   -0.71256072923007   -3.13797455391343
C         4.66542081424572    0.24837213780485   -2.35147828393300
C         4.04248829278915    0.89008032359488   -1.26794695807446
C         4.72710075989109   -1.30664904856316   -4.33645129663900
C         5.39645217769166   -2.65296586821123   -3.95183995082803
C         4.28788034270288   -3.71819206583388   -3.98369083469680
C         4.86471637727250   -5.12644970900254   -4.09283298298556
C         5.44106076590786   -5.31868789748884   -5.48215994062936
C         5.94503922864030   -4.02658521733436   -6.09233698337181
C         6.42593013501838   -3.07497916353027   -5.01185069637526
H         1.02070110258736    0.15788683209531    0.71453544702611
H         0.09859135955995    1.66590534894439    0.52491184927164
H         1.26322511072149    1.50008502955139    1.82132456929727
H         0.89741545108411   -0.33886083291140   -1.80406031341242
H         1.98506853577966   -1.49474655967519   -3.48199015413690
H         5.66093481779077    0.45989222171974   -2.72866209091159
H         4.63954209890293    1.49013160219486   -0.58768392011792
H         5.42254143485072   -0.58168957215907   -4.78366640141194
H         4.01022745769978   -1.55802340736265   -5.12990342131180
H         5.77475729911053   -2.62425937222287   -2.91610041004615
H         3.59502898136654   -3.55321640420847   -4.81606267196601
H         3.80434489404058   -3.55252763817492   -3.00963511917062
H         4.13814137441039   -5.94122753046474   -3.97969924109531
H         5.63772436248005   -5.32093384067817   -3.33792290837057
H         4.82182534190085   -5.89433267879768   -6.18207562267250
H         6.25947053051024   -6.03762592671479   -5.36244639724810
H         5.11273920988418   -3.58975365793817   -6.65476534650585
H         6.82659319306451   -4.30795465299782   -6.68284126522268
H         6.83418628390425   -2.21513196423445   -5.55248461321909
H         7.26364351518421   -3.55040806655172   -4.48018386322058
