35
 energy: -44.213825193186 gnorm: 0.121150382028 xtb: 6.4.1 (025e99ea0bd20707e8cccc6e19fe66a0758c6dd1)
C         0.74261165393726    0.96567430895808    0.04404466277346
O         2.14465445090792    0.73397215649693    0.07961845731005
C         2.71185697638642    0.28104413311820   -1.07960740195558
C         2.04915414151864    0.19162750183474   -2.30455592170585
C         2.76169843024983   -0.27434185674037   -3.41390079603849
C         4.10874605998692   -0.63491223766795   -3.27129920186622
C         4.78231638762747   -0.42022554261531   -2.06148499988911
C         4.07957362617865    0.05847394595967   -0.94306026857629
C         5.00197609553772   -1.10856840180916   -4.39932281751193
C         5.82043977332867   -2.41021171987348   -4.18868556241315
C         5.00642708519134   -3.32954967093089   -3.26302152503777
C         5.36449815940474   -4.79311490994871   -3.50302840509418
C         5.09341896220372   -5.18678285253338   -4.94209038732025
C         4.98281447079427   -4.02750464646812   -5.91146149135883
C         6.07297533280010   -3.02671052243833   -5.57349525393281
H         0.29453159728095   -0.02794761158034   -0.05976333570281
H         0.46490580371468    1.69469717152789   -0.72367724636348
H         0.45165205248486    1.40979492242575    1.00170074004214
H         1.02992506402526    0.48435716151455   -2.54109506041085
H         2.26455507072361   -0.38367265628131   -4.37612133339599
H         5.85101039317233   -0.46660667305833   -1.87764155308847
H         4.67759376551102    0.29674046411886   -0.06847833017730
H         5.51400706618164   -0.27097355791267   -4.89476654082445
H         4.16683697935838   -1.28941875196965   -5.08961152042976
H         6.78345732548251   -2.13489452954619   -3.72663268775247
H         3.94310274155194   -3.26744274657004   -3.51912096222759
H         4.99622391372431   -3.14334072395946   -2.17892840746016
H         4.82415626836528   -5.41941135550104   -2.78167081061338
H         6.39813479822407   -4.99654093814079   -3.19404977706095
H         4.11373240383618   -5.67848612318454   -4.99815755850686
H         5.79618542040216   -5.96174972708830   -5.26850027204478
H         3.97828776160809   -3.59120859224850   -5.89042249678254
H         5.05395829520201   -4.37832139354505   -6.94918381646138
H         6.23593868041792   -2.14714357483824   -6.20444711743347
H         7.09476616439805   -3.42333184711811   -5.66889436439053
