35
 energy: -44.224674938054 gnorm: 0.098346808724 xtb: 6.4.1 (025e99ea0bd20707e8cccc6e19fe66a0758c6dd1)
C         0.90674271511605    1.44004741742466    0.15823944282626
O         2.29318633219131    1.12763772368341    0.18738835065858
C         2.79129876068148    0.52473129913671   -0.93468781414449
C         2.05738432618970   -0.00457235477496   -1.99717380211660
C         2.70960609967850   -0.55287930729119   -3.10598355830979
C         4.10928521966462   -0.55160186220208   -3.18201141090954
C         4.82465363009371   -0.14263269985755   -2.04868444776926
C         4.17575880182390    0.37722082279714   -0.91618179495745
C         4.89375597060805   -1.06444771129435   -4.37207111153990
C         5.31664566366185   -2.53750472740531   -4.12754401142174
C         4.10449887714743   -3.47378916631782   -4.26438132015005
C         4.47068590569231   -4.94538318325560   -4.09657335638718
C         5.56709008968154   -5.44270933798868   -5.01848567815320
C         5.96304011640565   -4.26068232245021   -5.87980754526095
C         6.42118891227770   -3.07395976558758   -5.05152618558040
H         0.29758735962235    0.62726369381245    0.56707770749263
H         0.61491094046947    1.65085735770827   -0.87538775620862
H         0.81391554759686    2.31096049713429    0.81542989850102
H         0.97300360360849   -0.06642532824783   -1.96956984636079
H         2.13317283975744   -0.95951996569410   -3.93504396903229
H         5.86059116056147   -0.46227732643388   -1.99655733044994
H         4.67812975417217    0.58828993898537    0.02316150359286
H         5.86750002820843   -0.56024306923880   -4.45456663436760
H         4.36025052286855   -0.87958454302517   -5.31433445476069
H         5.63873107789508   -2.79184532661465   -3.10369487108905
H         3.55344109423365   -3.38757410173824   -5.20725200683502
H         3.34981456492402   -3.18527173422577   -3.51789284321001
H         3.60186726948955   -5.61531972178043   -4.12678240623784
H         4.73388337317623   -5.00978088245405   -3.03269616785391
H         5.12418104247269   -6.25655087979073   -5.60686897717987
H         6.36113567918975   -5.84872064568623   -4.38158365780113
H         5.22139964309490   -3.92786653797584   -6.61402403692413
H         6.81386333520502   -4.64862914442261   -6.45478456286272
H         6.90757437699840   -2.36431656498764   -5.72837995412679
H         7.23523540130022   -3.50378784330271   -4.44899643039015
