35
 energy: -44.220469933685 gnorm: 0.083322020988 xtb: 6.4.1 (025e99ea0bd20707e8cccc6e19fe66a0758c6dd1)
C         1.16624347645652    0.75547139888143    0.67490664026143
O         2.32997074957608    1.26800422012329    0.03951360152853
C         2.83412898479373    0.57838399373201   -1.02862284891733
C         2.09089574974854   -0.19584345736291   -1.92072454180838
C         2.63361958984676   -0.49526377870570   -3.17423606229494
C         4.02421820223458   -0.45174327630056   -3.34518917985781
C         4.77108629919988    0.32571424696708   -2.45009947681792
C         4.18558132545983    0.81194977367952   -1.26915351637101
C         4.68486740501859   -1.17821456198337   -4.49863159820625
C         5.25748389960125   -2.54199851790873   -4.02881265521105
C         4.14789210111644   -3.60274431291523   -3.93783338360101
C         4.64031346542172   -5.04402777453897   -4.02763640855876
C         5.53453813605605   -5.35260872416645   -5.21275150918610
C         5.84839050093229   -4.07199512570111   -5.95932042961201
C         6.37262044114189   -3.07436089019106   -4.94237910386364
H         1.32790922184889   -0.28960115420309    0.95867397620667
H         0.25177091598985    0.67515374098946    0.07885227450708
H         1.05170220063808    1.32766572288988    1.60144844696358
H         1.05849921634067   -0.48307264039190   -1.74148697226071
H         2.01615626392383   -0.91011704823348   -3.96897431903156
H         5.78850822132433    0.59346756977096   -2.71696511468076
H         4.62199149577903    1.44015835233457   -0.49831454827319
H         5.47155440732107   -0.48608712230817   -4.83223089238325
H         3.91454687898789   -1.30988255574416   -5.27059823997042
H         5.73602129345289   -2.43274308518617   -3.04100678807688
H         3.37546918141557   -3.34457209199541   -4.67050847324928
H         3.55890058783189   -3.47884266754931   -3.01708741224065
H         3.81690733802286   -5.76927792375755   -4.00338883807397
H         5.20223344557587   -5.10906032406104   -3.08674781477420
H         5.18415101257878   -6.03689659175966   -5.99612904475838
H         6.44846679593585   -5.84778392386247   -4.86557188699441
H         4.93570957944590   -3.75589013994575   -6.47600405457788
H         6.58264206087744   -4.26484187484701   -6.75221779664877
H         6.96329769846302   -2.24305169748873   -5.34027447046998
H         7.04620655785172   -3.63961609645041   -4.28114218348966
