35
 energy: -44.229040564174 gnorm: 0.087621519689 xtb: 6.4.1 (025e99ea0bd20707e8cccc6e19fe66a0758c6dd1)
C         0.69823682423376    0.84753804711210    0.05390749295742
O         2.11923244255130    0.81797389502850    0.07784051326028
C         2.76422799259183    0.36904296807337   -1.04158292137645
C         2.11753699749644    0.27866421504418   -2.27498945062534
C         2.82765990885339   -0.21650698827499   -3.37318058316783
C         4.19704020476164   -0.50724205758641   -3.30138760260813
C         4.83467937754310   -0.40123133859180   -2.05815964497338
C         4.08776378129485   -0.04670108113785   -0.92224599588031
C         4.97830640182712   -1.07105883366479   -4.47031064895662
C         5.77190469559966   -2.37932667382341   -4.21115205730786
C         4.91945605825800   -3.29174917671071   -3.31367262449630
C         5.28796591433956   -4.75806635486397   -3.51850383136109
C         4.99759062932756   -5.23368696985165   -4.92876089766013
C         5.05478428304943   -4.11735233163246   -5.95168098756780
C         6.07072712582670   -3.06136883925456   -5.55542379375318
H         0.29003728455218   -0.12533531443916   -0.23888409393610
H         0.35861288113232    1.65308688977013   -0.60468072466131
H         0.38990885949810    1.11705983006340    1.06943575139492
H         1.09260166512061    0.63162593832585   -2.34843947033950
H         2.31402724305287   -0.27036871462170   -4.33143602593178
H         5.89352668256904   -0.63952844006949   -2.06880666355118
H         4.59942374345390   -0.12615067440580    0.03231380581843
H         5.55500333827498   -0.16445073860303   -4.70416474390437
H         4.32789714900491   -1.27214622220041   -5.33239784363227
H         6.68421821976837   -2.01364535109387   -3.71049606297912
H         3.84042854973681   -3.12320778419043   -3.39967428343389
H         5.11721014487756   -2.96316200102666   -2.28267332453003
H         4.84282334872391   -5.47675195786188   -2.81856635169305
H         6.37748572891711   -4.84221278364980   -3.41304959928073
H         4.00275758120768   -5.69731889564685   -4.93611139583426
H         5.74435388788750   -6.01969456332031   -5.08855596394166
H         4.05256754092452   -3.68018383437314   -5.88598393293198
H         5.30820354495075   -4.42555757583083   -6.97431956621494
H         6.14470654750709   -2.35806938475788   -6.39100278003914
H         7.01065391982308   -3.61339346417451   -5.40618436913257
