35
 energy: -44.222002073155 gnorm: 0.104317324674 xtb: 6.4.1 (025e99ea0bd20707e8cccc6e19fe66a0758c6dd1)
C         0.63647633751344    0.82945103099120    0.15025663682533
O         2.05719878735667    0.85530360704588    0.11082650898709
C         2.70776600365450    0.36984842494837   -0.98997438590868
C         2.15276646650333    0.33064375641777   -2.26986021287803
C         2.84360474361179   -0.21217433034430   -3.35778659931796
C         4.21699627601703   -0.48715689265276   -3.30243502305281
C         4.86932545383810   -0.26869301066181   -2.08170658818627
C         4.07894826759089    0.12758703267462   -0.98985473969065
C         4.94726284151348   -1.08480166892653   -4.48741551710445
C         5.66320664216558   -2.42659461560765   -4.17831630606768
C         4.93991489692985   -3.44084363672110   -3.27676165128421
C         5.49896508479363   -4.83430344779241   -3.54800700786134
C         4.97186905967002   -5.22532452190983   -4.91498545259053
C         5.09754564980684   -4.13654005576356   -5.96121364444395
C         6.05268723501360   -3.03685208607816   -5.53383596535055
H         0.19997456272989   -0.13908836617029   -0.11476032387668
H         0.38612674557110    1.58353166187306   -0.60252439811455
H         0.35687911708254    1.25746096486439    1.11857407371966
H         1.13773273664750    0.63831085309414   -2.50548025310967
H         2.39029240023038   -0.39224645291122   -4.33095413080811
H         5.94099371535095   -0.38771897331390   -1.95754364993863
H         4.48016105357082    0.09747624278385    0.01881479075895
H         5.59514998886672   -0.37961921295683   -5.02793864977901
H         4.14975344713897   -1.29319463876519   -5.21351042118457
H         6.62512836939439   -2.15708480534150   -3.71059173672562
H         3.85956976254570   -3.49500147522305   -3.45003648014653
H         5.05276772954031   -3.16415027685032   -2.21811119632267
H         5.10958548183938   -5.43470493884577   -2.71585621027828
H         6.58811261981657   -4.94860770109419   -3.62512267082632
H         3.91769997408902   -5.52181773165492   -4.84068402832158
H         5.45489526357474   -6.12882877546982   -5.30404009455614
H         4.09614149298925   -3.75952285878479   -6.19556070150625
H         5.41953289124784   -4.57366204518264   -6.91528389348132
H         6.14771645687740   -2.20460116630179   -6.23855092464886
H         7.07780873820424   -3.43577321336234   -5.51253324484250
