35
 energy: -44.224405494751 gnorm: 0.101318941752 xtb: 6.4.1 (025e99ea0bd20707e8cccc6e19fe66a0758c6dd1)
C         2.15702447501803    1.41405592929566    1.10856670285392
O         1.73692995387778    1.24779290732012   -0.23922874860967
C         2.53856089710451    0.62594994474875   -1.15648893021646
C         1.77239878217251    0.16455357448927   -2.22783307668049
C         2.40391625992693   -0.49053666630227   -3.28968773521638
C         3.79363335348806   -0.67373649199320   -3.28690032981362
C         4.56131396205769   -0.22737367173024   -2.20298867379708
C         3.92023777589704    0.45333456682043   -1.15440292784669
C         4.38303540265129   -1.24727484816511   -4.55902702138726
C         5.16726723170226   -2.57427664567268   -4.37854752488906
C         4.44675400221601   -3.71685848128641   -3.64368681145405
C         4.64291008351754   -5.13370505276251   -4.17463877545058
C         6.08783785066632   -5.27222312975355   -4.61322087642587
C         6.40545748206835   -4.29046344394944   -5.72277274063918
C         5.50749641017872   -3.06859721190292   -5.79326804603514
H         1.27815384405603    1.75697193645174    1.66429269929084
H         2.91710787014385    2.19650053699760    1.19826324089195
H         2.44441448243417    0.46124605173957    1.56525706703867
H         0.71638092456421    0.41490734117012   -2.27900549633029
H         1.91517401040906   -0.92280917057756   -4.16103417029384
H         5.64387842114935   -0.29363047991390   -2.24447023453468
H         4.47785384905371    0.72775420749675   -0.26386895432482
H         5.13979847699557   -0.51977958937097   -4.88654134045795
H         3.62662978551035   -1.52161502638160   -5.30685767167911
H         6.13049586017357   -2.35053005543449   -3.88985202167611
H         3.36339746711979   -3.58911902799234   -3.54306822671251
H         4.85231534202683   -3.59938545177696   -2.62793297571137
H         3.91282354750781   -5.12248452341483   -4.99404168370002
H         4.36480794280836   -5.88654595052488   -3.42554303777521
H         6.24060377276411   -6.28234877545050   -5.01448156424599
H         6.74263878015195   -5.08235022626319   -3.75521051060122
H         6.42794544454100   -4.71150057433870   -6.73375880531895
H         7.38964557166315   -3.85097368815882   -5.51486887389893
H         4.52494237560563   -3.33935435245580   -6.19273451956786
H         5.82890280760281   -2.26804898402278   -6.47611973745215
