35
 energy: -44.217114677241 gnorm: 0.110750150449 xtb: 6.4.1 (025e99ea0bd20707e8cccc6e19fe66a0758c6dd1)
C         1.21868560092220    1.47752995507965    0.47217454352448
O         2.58660381778255    1.16229802826171    0.24833537360796
C         2.90204096671330    0.53488642019060   -0.92534311041615
C         1.90088661332564    0.08792721253221   -1.78881673488670
C         2.35092581453768   -0.51408327075007   -2.96802874113721
C         3.71264402979737   -0.64133009431047   -3.27529942229029
C         4.64022965458059   -0.02947975647597   -2.42168251225036
C         4.26203831343438    0.59030102204443   -1.21888678510202
C         4.23457732038622   -1.40623528687377   -4.47411258832442
C         5.06865488205214   -2.65250914558253   -4.07456001970354
C         4.24342655719303   -3.94380867204676   -3.94729426314427
C         5.13476961363905   -5.18174099878147   -3.97683259236632
C         5.70118430923264   -5.32204940629206   -5.37642028558154
C         6.11306653746428   -4.00059936215951   -5.99283123410042
C         6.27905338859776   -2.86726373045761   -4.99670901948857
H         1.19206423645841    2.17656029001930    1.31448342598882
H         0.73180157202242    0.50824195348055    0.61851837753024
H         0.86704849423237    1.97808730128014   -0.43601016263836
H         0.84097589550595    0.07599451825207   -1.55024554214991
H         1.60124411241331   -1.06997913232679   -3.52832352535308
H         5.70394937250533   -0.04053417424050   -2.63716954159159
H         4.98158917856254    0.91226319621995   -0.47197347097950
H         4.77910755246834   -0.75137275208885   -5.16970385020718
H         3.46296285865832   -1.80916620247632   -5.14412785980143
H         5.49536484970237   -2.52639606429945   -3.06524871355957
H         3.51818404009496   -4.06621114510618   -4.75917096242986
H         3.67709653205395   -3.87608199736951   -3.00669915084065
H         4.51824117826575   -6.07334956584474   -3.80507629094588
H         5.85917625598403   -5.17918986050426   -3.15191856671335
H         4.97714375350037   -5.83506240863388   -6.02239576392827
H         6.57280516300378   -5.96294368357621   -5.20169370924873
H         5.27948919628895   -3.52157223873865   -6.51776230323487
H         6.92198086523092   -4.01848639624614   -6.73467968227506
H         6.38655184629886   -1.88186878927618   -5.46118314366749
H         7.24961454554188   -2.98660417365492   -4.49249193864517
