35
 energy: -44.224416593044 gnorm: 0.097369076859 xtb: 6.4.1 (025e99ea0bd20707e8cccc6e19fe66a0758c6dd1)
C         1.27614294746531    1.23998113198912    0.38692256292384
O         2.60471740110440    0.73663092735663    0.33997706002455
C         2.95954111544144    0.21052565385864   -0.87162537630189
C         2.07229874103268   -0.25038970386541   -1.84529229409050
C         2.55779525304362   -0.66188436454056   -3.09046623293751
C         3.93118284744657   -0.60920136440083   -3.36599218556589
C         4.83497468469895   -0.16309813012479   -2.39254984189364
C         4.30596587962918    0.35184650536416   -1.19720212038467
C         4.55514794863356   -1.16273469240619   -4.63047459181051
C         5.44427172701076   -2.38841232923310   -4.29032840599618
C         4.51081920957588   -3.36319469560324   -3.55336261245959
C         3.98313249705968   -4.42254167587955   -4.51626038423166
C         5.14167295137410   -5.27750609637336   -4.99184174145864
C         6.37460843478281   -4.42961261411953   -5.23014068894101
C         6.07875227137173   -2.97771151251357   -5.55985736617032
H         1.28209929487500    1.92117693174353    1.24411166874524
H         0.46424532800136    0.51297407911346    0.48828726566239
H         1.11927222817548    1.84123910829171   -0.51467945281872
H         0.99434552725859   -0.20602005115772   -1.71677172578874
H         1.84641917793607   -1.03329116883184   -3.82597569744139
H         5.90421472539120   -0.15696660666488   -2.57894897826626
H         4.90575175105047    0.65534667565435   -0.34430285811161
H         5.20312319871956   -0.33839036763787   -4.96182009779454
H         3.87206090991988   -1.37430382160873   -5.46431706663092
H         6.28162277100104   -2.05703569574564   -3.65336060302900
H         3.75098674209609   -2.79036797449560   -3.01056705009455
H         5.07707871172994   -4.00164994373239   -2.85927267491394
H         3.46491915663267   -3.86321819652099   -5.30568141044026
H         3.22854342703208   -5.02006178076006   -3.98822657490000
H         4.76738689956353   -5.75129832063939   -5.90842903510731
H         5.28972801993164   -5.94000594705220   -4.13150959042804
H         7.03651066792751   -4.88331910325911   -5.97573216728185
H         6.91264517163348   -4.26361186207843   -4.28782350259765
H         5.33510393992699   -2.89077601038739   -6.35843403774760
H         7.01480459211153   -2.49895464619868   -5.88399296455187
