35
 energy: -44.217247285652 gnorm: 0.099169403585 xtb: 6.4.1 (025e99ea0bd20707e8cccc6e19fe66a0758c6dd1)
C         1.24137399044812    2.10784398371870    0.12358550528614
O         2.38471348366134    1.27836535767893    0.28300755061143
C         2.80182198904603    0.50974074295504   -0.76861204264097
C         1.99594915552336    0.36312948186295   -1.89854272896631
C         2.54447023996432   -0.44493911928089   -2.89936369052562
C         3.85145038688213   -0.94753922183768   -2.83549232885688
C         4.55491397582702   -0.90372636966191   -1.62443611785200
C         4.03159625746423   -0.11690528023185   -0.58476041219217
C         4.45495240730881   -1.38378327936427   -4.15462982798018
C         5.23140313020632   -2.71870326474165   -4.30837980910546
C         4.20459996677065   -3.86094668106332   -4.23349280115520
C         4.73062473181745   -5.26910746900312   -4.49468724821167
C         6.16394025488807   -5.15531154236343   -4.97636646251453
C         6.11290445700979   -4.14753609642320   -6.10668661486867
C         6.09213041356249   -2.72347866912812   -5.58143463556435
H         1.28991700627474    2.87488265863658    0.90341343689222
H         0.28173042490549    1.60565552480489    0.28132826529378
H         1.31551538092622    2.57788796941009   -0.86260285117198
H         0.95116943849292    0.65667342331663   -1.95085542944151
H         2.10333799716459   -0.61997779927903   -3.87902531996096
H         5.55520915767492   -1.32441214509379   -1.64656092743333
H         4.48641645622687   -0.02763437950836    0.39730978329001
H         5.12045062621630   -0.55317631076340   -4.43105252529853
H         3.59610454078285   -1.37116467886071   -4.83938071873493
H         5.88732608796284   -2.77482985372102   -3.42333173404648
H         3.36816512502427   -3.57815255844081   -4.88195797982792
H         3.72840035929105   -3.88447644002795   -3.24217244523480
H         4.14276928474474   -5.64428751375423   -5.34217723780139
H         4.57042420949660   -5.95353643425031   -3.65139167480270
H         6.44981684391478   -6.06283123611852   -5.52352637292471
H         6.83629422288732   -4.82877018713833   -4.17492485597634
H         5.29282141796379   -4.35701568844882   -6.80199439178211
H         7.06323554020810   -4.30410977418374   -6.63333353005071
H         5.58082028759022   -2.05972554781053   -6.28591250514796
H         7.05348427425118   -2.31229099697579   -5.23910523127920
