35
 energy: -44.216876139529 gnorm: 0.089680968556 xtb: 6.4.1 (025e99ea0bd20707e8cccc6e19fe66a0758c6dd1)
C         2.74404838054610    0.99441166312739    1.15867460446881
O         1.89235491654038    0.87486786176974    0.02686061760929
C         2.47060477410426    0.38589329919809   -1.11208540635845
C         1.71961925338023    0.34936474811688   -2.28782162717779
C         2.34019217504639   -0.16090721539830   -3.43237595442685
C         3.65674092559395   -0.62298463564545   -3.56679080489305
C         4.40253933815859   -0.50568500937619   -2.38634035299021
C         3.80980770323514    0.02240887416872   -1.22717664661165
C         4.24673938072498   -1.12722625190167   -4.86767109063685
C         4.92628659177739   -2.51172560373760   -4.69474538720103
C         3.93835765441778   -3.59874589606078   -4.23973315570329
C         4.66052297449383   -4.86734674995687   -3.79591953724559
C         6.16136897413656   -4.68842463031228   -3.91759915537365
C         6.54251656075214   -4.17501514017271   -5.29127191936504
C         5.58150256986165   -3.17874823721589   -5.91430091493550
H         2.24849833122360    1.69442865456290    1.83929396723724
H         3.71769954033480    1.43793405553647    0.92784326567937
H         2.88066469430848    0.02292083905756    1.64503592042705
H         0.71705925705319    0.75825775190635   -2.37809503274221
H         1.77049625657695   -0.08251344457328   -4.35664544149074
H         5.39694718209831   -0.92932191390390   -2.28764232711938
H         4.53676654920913    0.28498796394367   -0.46436891180100
H         5.04937964214526   -0.51036266066774   -5.29715127971006
H         3.44611057261616   -1.25092054791359   -5.60953084802867
H         5.66761839433782   -2.29789627518842   -3.90645648114579
H         3.22451369063364   -3.88111916238632   -5.02126689390670
H         3.38060670186291   -3.15645109099864   -3.40108844719146
H         4.29164880998380   -5.71033560569042   -4.39414609604705
H         4.38404999146302   -5.10481802902718   -2.76034012279941
H         6.84828130894819   -5.52414370606387   -3.73205547614401
H         6.39798441602455   -3.88029993170230   -3.21621098246852
H         6.56202255899508   -5.10707230244351   -5.86638908880362
H         7.58951877475283   -3.86799792345019   -5.17073872736834
H         4.81057869766681   -3.72175276010247   -6.47028454078830
H         6.15835409977828   -2.52318342869903   -6.58358639985783
