35
 energy: -44.222879764605 gnorm: 0.082187875385 xtb: 6.4.1 (025e99ea0bd20707e8cccc6e19fe66a0758c6dd1)
C         1.13219622210790    1.02533147711803    0.61908693226331
O         2.42867058891450    1.37533369312918    0.15290236725582
C         2.86214558833546    0.69939817966671   -0.95429124117634
C         2.21779573974827   -0.38099417740725   -1.55863789781831
C         2.71155029235612   -1.03600478358982   -2.69118387750911
C         3.92269109623772   -0.64966153325972   -3.28174325543761
C         4.54806762257950    0.45188118025412   -2.68262255370632
C         4.06517821718145    1.09700089298272   -1.53174773941573
C         4.53713002745397   -1.29618556496069   -4.50612833105053
C         5.10492590644871   -2.65440638120758   -4.01483387606797
C         4.00645778376742   -3.70942868497845   -4.22684464526346
C         4.64524128136587   -5.09498632024627   -4.23204967623592
C         5.58305040631736   -5.26048243400341   -5.41208478261922
C         6.18325250655011   -3.95125394570719   -5.88274161643182
C         6.43112872745006   -3.09779878886240   -4.65211883240739
H         1.02914569991422   -0.06452660780014    0.59843984168075
H         0.38618109323356    1.52944729835577   -0.00326382856758
H         1.12101009841116    1.43709260672916    1.63364763236021
H         1.32786552858391   -0.77383429552461   -1.07472654960826
H         2.17891365619033   -1.89707029785312   -3.09098070282283
H         5.37431530856023    0.96654234328894   -3.16272165780820
H         4.61498964141872    2.00576999142965   -1.30560904447640
H         5.20719556932460   -0.53401347990567   -4.92957987748012
H         3.79761664499049   -1.49525910138839   -5.29362585864047
H         5.32408958425167   -2.67210371429583   -2.93393179374913
H         3.52017729322711   -3.48835545525351   -5.18327591080962
H         3.31278843500756   -3.62948006946348   -3.37686416154680
H         3.83234501296155   -5.82228360193669   -4.11034635745396
H         5.22541544963479   -5.12026714582292   -3.30037727742364
H         5.19123320816187   -5.79464946747648   -6.28721120233042
H         6.39027101100205   -5.92072768315241   -5.07523337401038
H         5.61162932896736   -3.48790867068508   -6.69417793228457
H         7.18490028203714   -4.06976777947009   -6.31593633448452
H         7.05958488403907   -2.21414870806812   -4.80212121694861
H         6.99204346820615   -3.78686030135924   -4.00324684518383
