35
 energy: -44.222190376992 gnorm: 0.076610939673 xtb: 6.4.1 (025e99ea0bd20707e8cccc6e19fe66a0758c6dd1)
C         2.62114595130595    1.48962161800329    1.05684967259490
O         1.73770347911126    1.30173045420199   -0.04083046572925
C         2.22589910069473    0.72955080362990   -1.18317128650786
C         1.48535971549048    0.46326630910803   -2.33571769772977
C         2.06080718311696   -0.27559523042791   -3.37419575275157
C         3.38428077525104   -0.73601229288240   -3.41049015497391
C         4.13076792493984   -0.43254147642117   -2.26414808631719
C         3.53503290121786    0.25532639445637   -1.19372199842640
C         3.95138652727082   -1.54159265977263   -4.56117631110170
C         4.92006849322215   -2.71254801286031   -4.24646222599376
C         4.25123457917750   -4.09677252431214   -4.21129803155948
C         5.32920338083283   -5.09785292752233   -3.80674557273276
C         6.57063158576514   -5.09083448452671   -4.67747200575433
C         6.35972521709822   -4.13900436967497   -5.83737613294395
C         6.04706737160342   -2.75803275520356   -5.29018034792429
H         3.02649508527046    0.58154629759238    1.51502829087910
H         2.07869836586098    2.04203758718669    1.83052855673380
H         3.50817721249462    2.09087676419746    0.83174179267067
H         0.40840935930793    0.59206102559811   -2.39942937110726
H         1.45289681489121   -0.41960277471581   -4.26564396364091
H         5.19283771980153   -0.65573096356750   -2.24831485562325
H         4.15947963973674    0.38773115640769   -0.31518467424120
H         4.57908946552097   -0.92013766277003   -5.21614808297136
H         3.12899694795910   -1.94342176348566   -5.16852416359726
H         5.46637291994772   -2.71379129984051   -3.28821114330491
H         3.79330380490321   -4.40665782195254   -5.15701117797998
H         3.50151528836446   -4.00444479518282   -3.41165289696844
H         4.95095594052064   -6.12813580516764   -3.80233635436122
H         5.65616410759068   -4.86596446050171   -2.78469906471712
H         6.81600660734361   -6.10471805866098   -5.01884069558055
H         7.40834945026856   -4.71013253835083   -4.08224719794458
H         5.58019568964613   -4.51524183593611   -6.50868074259949
H         7.24603304330765   -4.06117154551010   -6.48033954185540
H         5.71724592021610   -2.10308542881923   -6.10292700538829
H         7.01174945570033   -2.42349674387420   -4.88037539370916
