35
 energy: -44.217080084400 gnorm: 0.090009592386 xtb: 6.4.1 (025e99ea0bd20707e8cccc6e19fe66a0758c6dd1)
C         1.12320223878936   -0.01654966245638    0.44606175162135
O         2.43134142010600    0.43055747990809    0.11508977440352
C         3.02612100377842    0.17193294743890   -1.08907701252572
C         2.35120830708597   -0.00341632169051   -2.29796687669060
C         3.03265994912320   -0.29009220148117   -3.48495189201671
C         4.43059897348429   -0.19102774041675   -3.51386945502818
C         5.09035300605574    0.17397200090327   -2.33279472112261
C         4.38065190126144    0.48637500730876   -1.16121325593812
C         5.09003613988779   -0.86776127423868   -4.69785495447727
C         5.21572513979653   -2.35374561714075   -4.26822836990464
C         3.84701611739892   -3.02823026055380   -4.07754821770916
C         4.02646656859185   -4.47765809617955   -3.63618907432565
C         5.30059286047896   -5.05019571343088   -4.22624046242295
C         5.56488190385922   -4.43537967310403   -5.58564922747272
C         6.08319987594493   -3.02965627743739   -5.34162262910761
H         1.13872901609568   -0.17977294389229    1.52862973252016
H         0.81048399382781   -0.95778527007264   -0.01683632066442
H         0.41410169584069    0.72707946666970    0.06764676230214
H         1.26515069628452    0.01163720951515   -2.32482897887096
H         2.38357986690009   -0.23928597907630   -4.35735481975399
H         6.14386096766445    0.43403344200120   -2.30943880235420
H         4.89171217096265    0.95032733583103   -0.32284686622426
H         6.13524664748119   -0.56632257124975   -4.85871210011994
H         4.55859082696556   -0.82035126497263   -5.65805328343561
H         5.79433299077626   -2.41309513813624   -3.33100597573619
H         3.38041270113074   -2.96946088317243   -5.06695726659866
H         3.17048389047322   -2.54533026568292   -3.35702930164578
H         3.15328981967747   -5.07182478886049   -3.93468812503564
H         4.09962813566494   -4.53856757006232   -2.54248341700784
H         5.26627344376008   -6.14561714552391   -4.16644538872420
H         6.10970124501782   -4.68992942559668   -3.58083393199687
H         4.71957048547430   -4.46215594366910   -6.28178314724735
H         6.30338253062049   -5.00024008831795   -6.16921669989868
H         6.01232143771620   -2.37643430551840   -6.21716396262596
H         7.08282567426001   -3.04135718092756   -4.88219110532717
