35
 energy: -44.229307865091 gnorm: 0.093942767318 xtb: 6.4.1 (025e99ea0bd20707e8cccc6e19fe66a0758c6dd1)
C         0.97324010317441    0.84870770899932    0.43611149564509
O         2.27162226851575    1.26523148666333    0.03438138542971
C         2.75276143830298    0.67214501556847   -1.10026420528846
C         2.04531880510860   -0.09520677782804   -2.02674431376621
C         2.71237174267336   -0.73533024161554   -3.07592264736234
C         4.09148103037373   -0.59560772476887   -3.28429425194234
C         4.77907334541102    0.18431580863240   -2.34494668379243
C         4.11885997868032    0.85267696236042   -1.30030026967529
C         4.74885190125836   -1.29577261217514   -4.45573780802355
C         5.40796428410632   -2.59541980391616   -3.92187056382601
C         4.33807735913191   -3.66585054823723   -3.64952366838322
C         4.85335031343334   -5.08287193456732   -3.88273083177060
C         5.33321442298230   -5.21863868353453   -5.31474186432953
C         5.65046080721715   -3.88383006068556   -5.95776622192935
C         6.42513331631585   -2.99394132254106   -5.00265298029334
H         0.87998631994220   -0.23746862106878    0.33432215602149
H         0.23237759872172    1.28182932526747   -0.24324129856319
H         0.96867959089611    1.18477552454737    1.47824555518393
H         0.97390951826662   -0.25749485247724   -1.94791508977128
H         2.22147369195004   -1.39959557209304   -3.78496692170812
H         5.82709479411856    0.29396688441268   -2.60510852368638
H         4.68172691230122    1.48241124708394   -0.61772563635223
H         5.48768184062301   -0.63171152242095   -4.92728686816759
H         3.98953199009838   -1.54794423371667   -5.20840335234124
H         5.90959199552222   -2.36024241394676   -2.96805902009911
H         3.46196475497438   -3.56059950824751   -4.29871684151628
H         4.07645446013105   -3.47998662394698   -2.59736216476542
H         4.07632405208251   -5.82536154966464   -3.66021625389733
H         5.69997802761520   -5.32823036000534   -3.22830329569739
H         4.52303756305851   -5.65749500709354   -5.91116450825480
H         6.25119698608394   -5.81687561580661   -5.29428820412651
H         4.83684165154689   -3.31084158807052   -6.41556407809103
H         6.34565337607469   -4.21634690551893   -6.73952149039983
H         6.87673304644611   -2.13327441502775   -5.50624555463213
H         7.15085089285829   -3.63110485179427   -4.47556417489459
