35
 energy: -44.215443414172 gnorm: 0.101253197119 xtb: 6.4.1 (025e99ea0bd20707e8cccc6e19fe66a0758c6dd1)
C         0.99171067685471    1.04490411906372    0.45217690055627
O         2.25581229108013    1.48623518555051   -0.02526354839155
C         2.68307315110438    0.88296746518651   -1.17599518026744
C         2.06147667952003   -0.12835403001137   -1.90983161903044
C         2.76733842479945   -0.92614886636712   -2.81579820010314
C         4.09880662747859   -0.76247172057744   -3.22235170622381
C         4.61473530838877    0.39501055677785   -2.62444692276005
C         3.94699268588165    1.18667225281363   -1.67509661932703
C         4.75610739427717   -1.71345483539688   -4.20124605035401
C         5.38712657859171   -2.97256021756086   -3.54932995129808
C         4.33913885264362   -4.09631244617305   -3.48970201962721
C         4.50178864215838   -5.10436876701874   -4.62337256512335
C         4.97253694671369   -4.40337584990045   -5.88288149064062
C         6.39898660980385   -3.90680598430264   -5.76246813089212
C         6.63111227578526   -3.31265642811692   -4.38501949667485
H         0.92091525591199   -0.04136226031200    0.33449207102886
H         0.07440977904170    1.47575618848315    0.03875537500769
H         1.05853656251764    1.34366787065066    1.50350001626347
H         1.11202007443469   -0.58071080461864   -1.63711410645452
H         2.26477614329052   -1.80380139349544   -3.21845228058612
H         5.53495812556337    0.79134072387183   -3.04178235415447
H         4.51221600095089    2.03621621655403   -1.30349165459896
H         5.51799814341656   -1.10841008491853   -4.71373864966806
H         4.06850927546298   -2.05463857514664   -4.98703555732942
H         5.74403775227256   -2.64123751385871   -2.55961539487111
H         3.35613571924684   -3.61822576499121   -3.56209550976782
H         4.45237287463817   -4.64514363884484   -2.54313023433253
H         3.51340120878407   -5.57578067965146   -4.69709139956282
H         5.26841586001112   -5.85147960012181   -4.37972783394116
H         4.36917702637651   -3.53879854961430   -6.18810974111927
H         4.93213232669702   -5.16367903116855   -6.67111007686198
H         6.47421526206430   -3.14992752130553   -6.55072344341637
H         7.10068584106059   -4.71783505157511   -5.99667209822234
H         7.35160317767505   -2.49557977369787   -4.49260165816999
H         7.14570684004820   -4.05838183097777   -3.76087846401776
