35
 energy: -44.225438694031 gnorm: 0.087017002397 xtb: 6.4.1 (025e99ea0bd20707e8cccc6e19fe66a0758c6dd1)
C         0.89959347290240    1.17313798024337    0.36934476276397
O         2.30459804253851    1.23453648965280    0.16229946876095
C         2.83902599002795    0.58720199239433   -0.91752082823504
C         2.09045540446571   -0.23619430140947   -1.75973804783926
C         2.63327043800085   -0.85776136778622   -2.88867517774896
C         3.98579992542025   -0.70182767796746   -3.22219005126307
C         4.69096221129836    0.16660412760247   -2.37838314596641
C         4.15009130897076    0.87181466753426   -1.29026036067478
C         4.69278358724545   -1.25247817530957   -4.44350304933027
C         5.33364166644356   -2.62067334207835   -4.08872273091568
C         4.23296437979162   -3.65416015652202   -3.79705966457208
C         4.99238055195905   -4.97423467988134   -3.88942706773565
C         5.42890283504991   -5.25024040527696   -5.31512931772069
C         5.84918706337750   -4.05152533592716   -6.14113355480709
C         6.38298214710472   -3.06240527913704   -5.12085659237265
H         0.54790290079929    0.33108733024655    0.97440740103605
H         0.34852524304155    1.12830312946827   -0.57527444145090
H         0.56652822960027    2.00645471505487    0.99676529954100
H         1.04799811868144   -0.45081997418055   -1.54136234772948
H         1.99381975607658   -1.49955812561024   -3.49214252526152
H         5.73678584857868    0.32587464655699   -2.62116352469288
H         4.85561158104535    1.42622396331361   -0.67857085495542
H         5.48748932122796   -0.52990819629275   -4.67917389197768
H         4.06975311952486   -1.16104006279845   -5.34357791901878
H         5.89825165419371   -2.39966529027511   -3.16727483543202
H         3.47005860252594   -3.70223557541145   -4.58176749453789
H         3.62923462353287   -3.49542042570592   -2.89132910708002
H         4.34569048718372   -5.82368559702683   -3.63487162020860
H         5.82684028473815   -4.94369791731808   -3.17668650921451
H         4.59793795536168   -5.74012060269607   -5.83878583463166
H         6.24640771523757   -5.97586141469219   -5.23665839145558
H         5.03980891675437   -3.69862193426832   -6.78939044790787
H         6.70336174142474   -4.28880601738267   -6.78850126735557
H         6.86982888463424   -2.17381383470193   -5.53520043259526
H         7.14178495484741   -3.58845805512462   -4.52256506967643
