35
 energy: -44.228894693832 gnorm: 0.089439476771 xtb: 6.4.1 (025e99ea0bd20707e8cccc6e19fe66a0758c6dd1)
C         0.87659791082502    0.98334381044125    0.39733686340277
O         2.22884582892977    1.29477014190577    0.08893033219300
C         2.76472303685262    0.65217120671364   -0.99299817242112
C         2.04855862992152   -0.12317083444067   -1.90602746556496
C         2.69398742718351   -0.69279658266904   -3.00804425707966
C         4.07523743712417   -0.57388312618200   -3.21514695607230
C         4.77076641407914    0.24757957312482   -2.31799800901028
C         4.12810614651970    0.83020250055350   -1.21282257374242
C         4.71261673361942   -1.20435677636099   -4.43617027244879
C         5.38446467541279   -2.55761412642565   -4.08142943686379
C         4.36549953346395   -3.64339242825590   -3.69743939817806
C         4.95314625630196   -5.04181273179545   -3.86155334583365
C         5.29118115140479   -5.34800118144940   -5.30769953863277
C         5.79590673542433   -4.13041629327256   -6.05508081549157
C         6.36628824961013   -3.04729678150641   -5.15742954145464
H         0.87478010441639   -0.04946328049733    0.76085105280828
H         0.33655281212840    1.06949121406659   -0.55077796083909
H         0.56234931522517    1.71843174451708    1.14560106769148
H         0.98073675607585   -0.31857550596023   -1.86083033706415
H         2.17536951799218   -1.29107476330960   -3.75508628149829
H         5.83678094476962    0.31720506358093   -2.50988809294939
H         4.73817530146560    1.27485103344358   -0.43218444605785
H         5.46238749025322   -0.42321689773992   -4.62818494796182
H         3.99145484018615   -1.24428749337648   -5.26381375223122
H         6.05415573846979   -2.48759938296773   -3.20775499139773
H         3.44657383194477   -3.50044779940904   -4.27644305798735
H         4.19679841272661   -3.47140621645003   -2.62412842657066
H         4.13342724585306   -5.71317309167589   -3.57535518521220
H         5.77326932622823   -5.11237582634491   -3.13514186290667
H         4.46316363833173   -5.82495703934350   -5.84770092143319
H         6.09194220295645   -6.09583237294347   -5.28472103938403
H         5.00296467161584   -3.76872607825500   -6.71862724682235
H         6.61137517438189   -4.48801162057071   -6.69706077187953
H         6.68875147425599   -2.24395988892166   -5.82747627510653
H         7.23042345245288   -3.48203371771588   -4.63327296508539
