35
 energy: -44.213050238013 gnorm: 0.099257386934 xtb: 6.4.1 (025e99ea0bd20707e8cccc6e19fe66a0758c6dd1)
C         0.76436019220938    1.04451274319507    0.29452843723683
O         2.16584981950316    0.87331200752811    0.12962665185994
C         2.77002803192007    0.41414042569238   -1.00826502393399
C         2.08860823632683    0.18649317084059   -2.20472370662473
C         2.79474843595876   -0.34328915116944   -3.28924657666696
C         4.16592721945716   -0.63410055772542   -3.27578025893486
C         4.81952241943839   -0.39459843609943   -2.05968398475442
C         4.13571364982383    0.14720860306658   -0.95844584386547
C         4.84755081049548   -1.09321329959551   -4.54827875693230
C         5.65304006510010   -2.41268030317830   -4.41145690268301
C         4.79855307819662   -3.31283239161691   -3.50358515438433
C         5.22984175735695   -4.77262295678646   -3.39945535512802
C         5.35289584765502   -5.29421034441083   -4.81796234169316
C         5.13301739759867   -4.23572787874863   -5.87961576954712
C         6.07212417269884   -3.05070993782388   -5.74518462540693
H         0.42407670242860    1.05305099734054    1.33518718268983
H         0.14016825488498    0.26728317453811   -0.15745657183917
H         0.41338963887585    2.01716981335755   -0.06569883375741
H         1.10263861006720    0.62711128553540   -2.32384157458788
H         2.22685321986592   -0.54657718377501   -4.19541557916295
H         5.87561741448663   -0.61848344686213   -1.94745423596949
H         4.71186972357453    0.31070311215677   -0.05257252708774
H         5.56358495667946   -0.31986930060551   -4.86202956123881
H         4.16050914142944   -1.32054620052955   -5.37469042921683
H         6.59856418287601   -2.34763897753278   -3.84714401360052
H         3.79594347736284   -3.30977962048732   -3.94502318611458
H         4.78509932937735   -2.72768791045525   -2.57220944325661
H         4.46898649000662   -5.37448157844791   -2.88619241528420
H         6.17823963599007   -4.77366098272145   -2.84646798030588
H         4.54153649922381   -6.00603210193606   -5.01722895756912
H         6.28011543713470   -5.81578098538848   -5.08107005553931
H         4.11891033594843   -3.83248876429501   -5.97372149422841
H         5.34593513215008   -4.70501288214681   -6.84886242989168
H         5.88436536909317   -2.33909843577861   -6.55552470304130
H         7.08937993053606   -3.38073820002362   -6.00352173574720
