35
 energy: -44.227504622174 gnorm: 0.091216101463 xtb: 6.4.1 (025e99ea0bd20707e8cccc6e19fe66a0758c6dd1)
C         1.26663052409943    2.04288173589762    0.12605035700129
O         2.47294359929317    1.30775175656988    0.28437929789204
C         2.79545084502061    0.42018847184647   -0.70500816352046
C         1.96899531567545    0.22042504789708   -1.81168564599893
C         2.46322103411908   -0.39511842264651   -2.96595597710885
C         3.78716553597283   -0.85555984014647   -2.95901671337241
C         4.51587127497118   -0.90657578607284   -1.76326462655564
C         4.05138194033925   -0.17893506466830   -0.65481387565653
C         4.47929403016110   -1.29278685213681   -4.23355113575211
C         5.17102882115274   -2.68198018197818   -4.22047346822994
C         4.12218374896307   -3.80648974782561   -4.21305218778905
C         4.72538659982344   -5.19888253141174   -4.37189190686232
C         6.08942396412947   -5.15854951253442   -5.03305231265543
C         6.23692005147628   -4.13476088223791   -6.14027468961218
C         6.10584480972046   -2.79712182847360   -5.43472398575720
H         1.20784474094712    2.70016832257360    0.99975221168242
H         0.35626660567557    1.44333915433366    0.02716644512552
H         1.35718133019742    2.62446687190314   -0.79729413436594
H         0.92926902874430    0.53488426143962   -1.83522210720818
H         1.86568634798509   -0.46721175480548   -3.87299949011495
H         5.54096397799011   -1.24905548705039   -1.86300972452400
H         4.64912507707891   -0.13767007656809    0.25088635687722
H         5.27275988532214   -0.57593734587956   -4.48995714666944
H         3.75715310188871   -1.25351708594656   -5.06037217410577
H         5.77026802354429   -2.71465287893231   -3.29497895802080
H         3.30099798848332   -3.51266144004139   -4.87594110765610
H         3.68149451771645   -3.79801671812385   -3.20520449370632
H         3.98961972500229   -5.68707990885714   -5.02372302140444
H         4.82199950392182   -5.72694231731904   -3.41425238693237
H         6.25458161706408   -6.13697249299898   -5.50221412559339
H         6.86427615074729   -4.94657519240900   -4.28762039742116
H         5.43841455586762   -4.25853757896539   -6.87982799863995
H         7.19321690492392   -4.31444334865171   -6.64842033229173
H         5.69061281883548   -2.12085567916657   -6.18874109974408
H         7.07939428637988   -2.36546877250053   -5.15842157437013
