35
 energy: -44.230612910493 gnorm: 0.081420489780 xtb: 6.4.1 (025e99ea0bd20707e8cccc6e19fe66a0758c6dd1)
C         1.02468452810451    1.12552461892326    0.48935857484501
O         2.39092350933129    1.28967155477508    0.13281656446569
C         2.88932082416949    0.58066426530831   -0.92528354943225
C         2.12126047365943   -0.30234792980493   -1.68557428357732
C         2.63853938799588   -0.78751969265715   -2.89078120615978
C         3.98164217273196   -0.59004581576477   -3.24001250427737
C         4.75179622674453    0.24212493089297   -2.41673106645455
C         4.21297987382002    0.84452922745111   -1.26753115177402
C         4.52520726410774   -1.28637804034766   -4.47058381373976
C         5.24588959157218   -2.59067614385131   -4.03705225105978
C         4.17493982148357   -3.68845227860164   -3.92477141846982
C         4.76507525230515   -5.07889210712805   -4.13984968893599
C         5.43521398682917   -5.26494293699288   -5.48731283641202
C         6.03674300549779   -3.98125300530447   -6.02223586633314
C         6.44103640574876   -3.07823365865904   -4.87099146833622
H         0.88964536704445    0.18314702234921    1.03021460592208
H         0.32691190004519    1.12297985441041   -0.35390809831812
H         0.75683590680826    1.86853434454247    1.24777760922007
H         1.07988567516057   -0.53128004445122   -1.47677308052336
H         1.99164161076504   -1.31275327910195   -3.59122823730040
H         5.67094934139937    0.63399096471793   -2.84058842005350
H         4.78376248646071    1.60141804089355   -0.73779620947981
H         5.23175779377630   -0.63472202275522   -5.00475242431605
H         3.76882335762826   -1.50629544565375   -5.23620930005180
H         5.55507571749003   -2.43335132811335   -2.98998584228688
H         3.31235200561143   -3.60536309580760   -4.59495146734519
H         3.76330404833561   -3.73635017132935   -2.90580255268421
H         3.97828580834712   -5.81178015073541   -3.91982500279479
H         5.50530787511125   -5.14870538882354   -3.33211432817337
H         4.70637814425374   -5.66196399437418   -6.20555651410671
H         6.26104215929703   -5.98491265251789   -5.46183337691176
H         5.24947775289007   -3.41215835865169   -6.52841320777989
H         6.91825335895732   -4.19834157374966   -6.63933675527508
H         7.08312929345123   -2.25918688734210   -5.21036505059629
H         7.11853431402427   -3.66775565883147   -4.23543945355999
