35
 energy: -44.214702827658 gnorm: 0.114579922012 xtb: 6.4.1 (025e99ea0bd20707e8cccc6e19fe66a0758c6dd1)
C         1.28963204632626    1.30072890792300    0.73039956500184
O         2.49370441656042    1.66072991802514    0.06610717937603
C         2.92490183667338    0.83933080973660   -0.93889995636186
C         2.08570016506631    0.26729178398544   -1.89607346619180
C         2.56276590430709   -0.48692289189338   -2.97267057077906
C         3.95652332486851   -0.61763160946525   -3.04505137502120
C         4.84439748305484   -0.17023864085774   -2.05765240020373
C         4.29531766033958    0.60831674811772   -1.02506473561657
C         4.49089076042885   -1.28609114731581   -4.29495560589352
C         5.11265607722293   -2.70420513205527   -4.19061598980247
C         4.19235738179931   -3.91742624293793   -3.97661212093978
C         4.19179205496809   -5.02207953210335   -5.02902942552119
C         5.62493703549711   -5.50122257227917   -5.15502615782161
C         6.56066532979512   -4.33874829681019   -5.41752523223480
C         5.86426721368218   -2.99243943839609   -5.49964025815537
H         1.38349685401347    1.56020122370075    1.78997489048516
H         1.05732186571598    0.23189561855147    0.69016054761772
H         0.47973277487576    1.80121715366128    0.18949249881977
H         1.02184552554731    0.40222824944365   -1.72150320466211
H         1.89837872636768   -0.76540915702157   -3.78876380369517
H         5.91768892285549   -0.29648145496337   -2.15847260184759
H         5.02362972496786    0.84503300746573   -0.25511699648491
H         5.36203575167239   -0.74229516309965   -4.68814468205237
H         3.69400479155418   -1.31774753750311   -5.05035833817652
H         5.90544812306876   -2.78052641064340   -3.42749670506205
H         3.18495121329031   -3.51099321755598   -3.83502168054553
H         4.42055152011114   -4.42523027858819   -3.02787703847984
H         3.73661496879637   -4.62645277075977   -5.94601724362964
H         3.50510868468404   -5.80569512558429   -4.68309996648979
H         5.51889910488877   -6.27497971194339   -5.92623120905801
H         5.95915630860473   -5.98398534824830   -4.22969630162831
H         7.16735190188573   -4.53418241343711   -6.30837185398179
H         7.31479789644113   -4.30912912646444   -4.62040025262830
H         5.23032857711247   -2.82886123885262   -6.37694254024564
H         6.50214031410482   -2.12087427738273   -5.70930199637711
