35
 energy: -44.218453219333 gnorm: 0.108348260085 xtb: 6.4.1 (025e99ea0bd20707e8cccc6e19fe66a0758c6dd1)
C         0.84040525301682    1.14665591680548    0.21945159418425
O         2.23027149023210    0.85192467913489    0.17383674379326
C         2.87334115567862    0.44422783162441   -0.96234623530347
C         2.11456370466689    0.15888428502239   -2.09835023786780
C         2.72625397635337   -0.34754629619053   -3.24937409801136
C         4.11439559185476   -0.54012571264420   -3.27869215505508
C         4.84811606058556   -0.13576654241050   -2.15548884263129
C         4.25985911853750    0.31616784602178   -0.96234864827551
C         4.72636440039649   -1.20625986753356   -4.49376696099148
C         5.37855290889758   -2.58334659488354   -4.19913419643245
C         4.42471585497503   -3.59130081903190   -3.53665703580899
C         5.28097246210831   -4.85250743955566   -3.60009118941389
C         5.38884294013064   -5.31143831778419   -5.04130740498843
C         5.35808554147673   -4.18102227863193   -6.04979796633746
C         6.08973382758497   -2.96715810923688   -5.50621234501392
H         0.50278661748172    1.72040220677005    1.08874165223529
H         0.29470027008881    0.20461813225115    0.33242364848026
H         0.59011757824572    1.70697707585558   -0.68741225796526
H         1.02989074705765    0.15453501022236   -2.03562073489223
H         2.06821439340276   -0.62443350967639   -4.07113469657832
H         5.92954036930911   -0.13460184097803   -2.24809877533757
H         4.86549102078802    0.61183493095473   -0.11083026830450
H         5.56845217443863   -0.58617093093645   -4.83374228101162
H         4.16513894487899   -1.12650497762422   -5.43468555674378
H         6.15172331008978   -2.38624887488307   -3.43752061844759
H         3.44964637702741   -3.73394994784537   -4.01518978128245
H         4.17465569978943   -3.23395945833054   -2.52679920545230
H         4.77902095148578   -5.57872660270751   -2.94799933612963
H         6.22657300910126   -4.60207281080734   -3.10171708673371
H         4.63404422619596   -6.07400848580093   -5.27253678741166
H         6.30574822553632   -5.90389473181503   -5.13762905479343
H         4.30609795562886   -3.88167510229679   -6.10966602406808
H         5.77271588044207   -4.51163688157398   -7.01093121667722
H         6.10635678693969   -2.11960843544582   -6.19880064191749
H         7.13291883337759   -3.26144080375181   -5.31745665884403
