35
 energy: -44.221716937779 gnorm: 0.096872759370 xtb: 6.4.1 (025e99ea0bd20707e8cccc6e19fe66a0758c6dd1)
C         0.91368277566913    1.02741413180898    0.41229675486201
O         2.27817254181733    1.29012843570696    0.11258981139886
C         2.78539320571394    0.72009846069546   -1.02251375293713
C         2.10284257005539   -0.09491543146543   -1.92669639023549
C         2.70118362284380   -0.83815182702281   -2.94898817696552
C         4.05035903960136   -0.64058799847685   -3.27391550497224
C         4.74527686981078    0.17966276078730   -2.37518547132487
C         4.13151011149712    0.89448664361165   -1.33298028873663
C         4.74264691912288   -1.29224466384572   -4.45320699714551
C         5.37717928785925   -2.62712145534769   -3.97992186697252
C         4.34292770911667   -3.71248827859711   -3.63793447970912
C         4.92826034125873   -5.07862038644039   -3.98276803749644
C         5.36226577937867   -5.25488969331911   -5.42496295561171
C         5.68898248504450   -3.93518583642867   -6.09390060316413
C         6.39092952931274   -3.11500900674622   -5.02673563016335
H         0.87406708944958   -0.02240702600836    0.72074851897885
H         0.09562259110384    1.30557862645795   -0.25956174729612
H         0.63146160058361    1.62270507632441    1.28693134620827
H         1.05632021463295   -0.35903279881335   -1.80218811490982
H         2.07734090410239   -1.56063681332458   -3.47225562114164
H         5.81087308956057    0.33886729192459   -2.50639186196359
H         4.81478970563117    1.37511311414527   -0.63913608343667
H         5.52988520103187   -0.56674272823329   -4.70442038040330
H         4.04914729561097   -1.30962623291077   -5.30492222319513
H         5.84620209301335   -2.44088347240354   -2.99909147972802
H         3.41663682652680   -3.52433959009778   -4.19172877800403
H         4.15366323479003   -3.54908111711512   -2.56671422805512
H         4.13911333584323   -5.78883933215700   -3.70454253504154
H         5.75545497005904   -5.17218285577775   -3.26705178462081
H         4.71732912804931   -5.91289239520164   -6.02144476333563
H         6.34886816783279   -5.73193932758486   -5.41886878474889
H         4.77404354298357   -3.39190215693699   -6.35390132020939
H         6.27187082361984   -4.11482687373720   -7.00657345861581
H         6.77557123202866   -2.22990086771754   -5.54338799509682
H         7.20669437734914   -3.72898287758100   -4.61682128637238
