35
 energy: -44.213632432338 gnorm: 0.103353940837 xtb: 6.4.1 (025e99ea0bd20707e8cccc6e19fe66a0758c6dd1)
C         0.90503610096919    1.47849176251426    0.13556882807510
O         2.30543349070657    1.26422040952165    0.01873428176197
C         2.79435380010176    0.40993297786936   -0.93090616557625
C         2.06699522091814   -0.04859552819118   -2.03016515844142
C         2.68064956368916   -0.67801013893927   -3.11771213608121
C         4.08170953634244   -0.68958513710659   -3.15990796130520
C         4.81253708264660   -0.34084462085486   -2.01635695563691
C         4.16501936252763    0.17029863624013   -0.87911124061996
C         4.90774920547043   -1.16706775546870   -4.33647761192337
C         5.39870540968671   -2.59549081145744   -3.97997268294575
C         4.13529454723032   -3.46247918043327   -4.10949876104732
C         4.47624958561204   -4.94479984853094   -3.98984715114224
C         5.45614344564932   -5.36530254762939   -5.06796740129847
C         5.96882930324893   -4.19834019640901   -5.88723032159172
C         6.40627803347319   -2.99725498614011   -5.06851566511550
H         0.32720609244409    0.58898134128029    0.40708318173554
H         0.52412953198700    1.94694964541720   -0.77736556052324
H         0.83214364420897    2.24155916420701    0.91750271262075
H         1.00268409307944    0.14962002001254   -2.12193519930933
H         2.20258052004603   -0.94752997665041   -4.05780901516849
H         5.89320431183638   -0.34977433402828   -2.11703014343386
H         4.71625060410428    0.61944860011417   -0.05831832746899
H         5.76721694503737   -0.56695687541680   -4.66872368443358
H         4.28756919627892   -1.10186726690724   -5.24079410906991
H         5.78167206135392   -2.73260472929158   -2.95467685280164
H         3.58546426538939   -3.21308736544351   -5.02360665227420
H         3.47844699128567   -3.11644499116060   -3.29780460844653
H         3.56794676164442   -5.50756860263177   -4.24054754321637
H         4.82913186750586   -5.08815495760643   -2.96019767125937
H         4.89282559107643   -6.04337706325046   -5.72187055381223
H         6.31856185080923   -5.84247854243873   -4.58886894640421
H         5.29733120654572   -3.70044943415170   -6.59509040081179
H         6.86800203955965   -4.58676678045885   -6.38282555736118
H         6.70538446623225   -2.25242528241476   -5.81286731269782
H         7.38185496628396   -3.16913685878454   -4.58979628935944
