35
 energy: -44.229128177302 gnorm: 0.088974494189 xtb: 6.4.1 (025e99ea0bd20707e8cccc6e19fe66a0758c6dd1)
C         0.73719437851260    1.30594087335722   -0.12040670169947
O         2.09611110205185    1.00509322958349    0.16857672457670
C         2.74304128827241    0.32948287040312   -0.82927048827432
C         2.14494670251014   -0.33381152967392   -1.90164759597934
C         2.93964325138592   -0.83045696048916   -2.93957512664272
C         4.32272959340490   -0.60714631918453   -2.98527027671498
C         4.94933544825332    0.02886353868147   -1.90531920210592
C         4.12750224419611    0.47553028123806   -0.85700938892131
C         5.19428213878474   -1.11781575237445   -4.11410162592908
C         5.58582536838668   -2.61260686617195   -3.96981166605680
C         4.41649339038791   -3.56066821119137   -3.65597215169212
C         4.84203934302233   -4.97258792991696   -4.04742426205794
C         4.93602863781005   -5.11258482905814   -5.55438300374474
C         5.40204285124680   -3.84338037999436   -6.23833509869362
C         6.27498167051631   -3.07392975891869   -5.26356111584291
H         0.17972834135508    0.40293821123922    0.14913767121203
H         0.62332280290995    1.63361396802466   -1.15850853233107
H         0.50292045462912    2.13805112411141    0.55169004077679
H         1.06895193154387   -0.48216242311244   -1.87525452503892
H         2.40415841875028   -1.43594454437734   -3.66869369235305
H         6.02173797510646    0.19578788319306   -1.91738470060774
H         4.66685536882124    1.08149745478880   -0.13507131590735
H         6.10688137945788   -0.50974843142909   -4.19547780787638
H         4.76315702709355   -0.88846314221195   -5.09806869073773
H         6.26681565590296   -2.63765427267658   -3.10244779977575
H         3.54539957401690   -3.29229737862801   -4.26365258523399
H         4.14082815418631   -3.56248865035410   -2.59105848026714
H         4.05840784616104   -5.70910680630240   -3.82825538158721
H         5.67876703973593   -5.33597249571154   -3.43661081997677
H         3.95101568602774   -5.38289697636840   -5.95610705594330
H         5.54453523243197   -6.00766573749815   -5.72627731902665
H         4.60177432831882   -3.20089415874666   -6.62128749979389
H         6.02058221521333   -4.10707372891472   -7.10601956356429
H         6.82702794028177   -2.25538992904863   -5.73635365177010
H         7.04142205121475   -3.79270568157323   -4.93737668041027
