35
 energy: -44.215187295203 gnorm: 0.104966789498 xtb: 6.4.1 (025e99ea0bd20707e8cccc6e19fe66a0758c6dd1)
C         0.77576155212934    1.18264609092072    0.14334303084732
O         2.09426830716291    0.65828138415833    0.22853093172941
C         2.68004938224318    0.29762646219621   -0.95360935310289
C         1.99187080845565    0.22990011634253   -2.16583567870923
C         2.65271739860347   -0.26445353226471   -3.29472412002663
C         4.01151762923883   -0.60016389858567   -3.37117023377104
C         4.68651107037094   -0.37434962102471   -2.16417829127870
C         4.03305962384238   -0.03095275121134   -0.96878953830701
C         4.92840668150164   -1.08511918254646   -4.47515400135641
C         5.78435400946059   -2.35511734400772   -4.22418586879759
C         4.99426927001401   -3.37983337617254   -3.39329719428873
C         5.46837748162888   -4.81756215459795   -3.58303060617798
C         5.19207908726820   -5.30323870356270   -4.99268845687621
C         5.06368108489388   -4.08975787307549   -5.89091887102306
C         6.13210988134759   -3.07049156116067   -5.53904268258420
H         0.00446755841697    0.53670151350387   -0.28874207012530
H         0.89805036284839    2.04259888045446   -0.52262877959750
H         0.42215744889319    1.62672213959413    1.07970106669107
H         0.91272833436366    0.26693458273724   -2.28645619309088
H         2.07990239921706   -0.34019327999034   -4.21728554386644
H         5.72264250197473   -0.63691621888549   -1.97563930533928
H         4.60526299387049   -0.05877004018591   -0.04623759015950
H         5.59081641715909   -0.22637098699606   -4.65673100532755
H         4.36339472808213   -1.24770437419163   -5.40304958652657
H         6.71646736393687   -1.97114505071557   -3.77649714747001
H         3.95049865122637   -3.35630449429581   -3.72509854788621
H         4.94794635849050   -3.04270904180142   -2.34723929150732
H         5.05606135715855   -5.38899182201337   -2.74158130600844
H         6.56470728379677   -4.80237515891416   -3.52748816237000
H         4.32494112971658   -5.96562260022030   -4.87427932555891
H         5.94308406121381   -5.96505030658027   -5.43877667197264
H         4.05082503152106   -3.68510861624900   -5.78966478691452
H         5.18351937220876   -4.36567541039223   -6.94662231194634
H         6.22765587561898   -2.42295900887093   -6.41646383317011
H         7.12108915688137   -3.55206095308448   -5.51720507115110
