35
 energy: -44.220773411124 gnorm: 0.098766069598 xtb: 6.4.1 (025e99ea0bd20707e8cccc6e19fe66a0758c6dd1)
C         1.03220039801123    0.64670149669682    0.41284934436443
O         2.41179207775373    0.88381976403501    0.16550928918153
C         2.98006604033962    0.38641233061825   -0.97480541466812
C         2.20062264738155   -0.05646777150615   -2.04438218251754
C         2.81721326782880   -0.29639288927815   -3.27635003721742
C         4.20102710629195   -0.51201058657277   -3.33510195671396
C         4.94766969644624   -0.30440862402664   -2.16768428634600
C         4.36468854164504    0.24436072750937   -1.01318889068800
C         4.94705513604033   -0.91302502509256   -4.59099881655945
C         5.29672011209304   -2.41934459219816   -4.45961407878143
C         4.15176912794554   -3.22944999517609   -3.82916239877680
C         4.77519581927110   -4.58092513855587   -3.49346088479879
C         5.77683526846110   -5.05287062989682   -4.52948387591992
C         5.34731378097371   -4.50766086747941   -5.87636815379112
C         5.55926226911811   -3.00468878026889   -5.85603330815472
H         0.88292695557511    0.59409320877763    1.49626346842159
H         0.76407396982960   -0.32099549912169   -0.02265328950262
H         0.43832476776136    1.52394999011473    0.13580677574307
H         1.17265767573175    0.28490623985005   -2.12935945910286
H         2.18202335641433   -0.51466400594599   -4.13300901089671
H         6.00429091425949   -0.55136314555450   -2.14275324611320
H         4.94653917118377    0.41290697329618   -0.11189283219390
H         5.91788109707777   -0.40322618681396   -4.67350591212794
H         4.38378315290666   -0.77792734837265   -5.52434545966249
H         6.14720259585609   -2.47157058690050   -3.75915193576386
H         3.33671199888722   -3.23008825609920   -4.56113529567739
H         3.73891418312235   -2.72316723516114   -2.94414017910633
H         3.95968967419942   -5.30526714766856   -3.37159309504474
H         5.29421851809726   -4.41817479588838   -2.53984544440441
H         5.74220732060709   -6.14653322106711   -4.44343488459952
H         6.74700146850594   -4.62907347302538   -4.24633854357322
H         4.37964143251660   -4.85580599395959   -6.25356305406583
H         6.02876454280416   -4.91633770198054   -6.63373831612717
H         4.83510683522650   -2.53945983640693   -6.53238843664975
H         6.50558044471872   -2.65277712467849   -6.29319010680070
