35
 energy: -44.221838714405 gnorm: 0.109164360636 xtb: 6.4.1 (025e99ea0bd20707e8cccc6e19fe66a0758c6dd1)
C         1.20677313972014    1.11579873516095    0.67711178181809
O         2.45202033263663    1.52722270497619    0.12869120725589
C         2.76822915167967    0.86038045428464   -1.02282972203897
C         2.07860793012544   -0.18168735130986   -1.64426876251989
C         2.57386074376140   -0.89968486860910   -2.73729073763284
C         3.84009195007133   -0.60667889981415   -3.26235220067087
C         4.63339936715276    0.32109908094102   -2.57436302129370
C         4.08349237254405    0.98225814453978   -1.46335202736462
C         4.52781998773079   -1.29282710668689   -4.42462501758566
C         5.10251792953921   -2.68284041224501   -4.04237973230423
C         4.10587308071003   -3.84800117130533   -4.15964985863013
C         4.86146980809263   -5.17112396161136   -4.08052292008535
C         5.56072721558671   -5.35098832887483   -5.41395670436162
C         6.10788038793006   -4.04872030278417   -5.96219118308414
C         6.35081455885043   -3.01979837227064   -4.87289626931024
H         1.06092045069895    1.83529576212995    1.48944630636974
H         1.35140091900317    0.09710348751570    1.05038728494294
H         0.40699688980623    1.00257361736277   -0.06217421911146
H         1.11061271667328   -0.52791745669703   -1.29273028304380
H         1.98980052737027   -1.70070577688438   -3.18697091254563
H         5.63121558471665    0.54331124498297   -2.93911093104700
H         4.77135594753488    1.63795383682087   -0.93780522279194
H         5.29060128243502   -0.62204812556014   -4.84584416890688
H         3.72132165828111   -1.57855197530159   -5.11352589502066
H         5.48550499834419   -2.49941306223833   -3.02435687591238
H         3.58118094913731   -3.72587568946729   -5.11352950781537
H         3.31301007428448   -3.70069001844791   -3.41151655308059
H         4.22021889622483   -6.03093503586418   -3.84793839779870
H         5.56672460101852   -5.04854393871309   -3.24815013209312
H         4.79693239822154   -5.75942145946894   -6.08812377672208
H         6.45186370390067   -5.97592071245087   -5.28615592221707
H         5.35862287174735   -3.60060760259580   -6.62376429197974
H         7.03212721006745   -4.28129615988116   -6.50687250270611
H         6.73380751182693   -2.16093910943955   -5.43322874624430
H         7.16225848235326   -3.44773232648235   -4.26552714113483
