35
 energy: -44.228278417563 gnorm: 0.083873589343 xtb: 6.4.1 (025e99ea0bd20707e8cccc6e19fe66a0758c6dd1)
C         0.70875587166854    0.94342788449564   -0.01112691290562
O         2.12531526815740    0.86147248783495    0.07441942837332
C         2.73966948589376    0.39050264434278   -1.05315468667754
C         2.06119040956838    0.27106493728012   -2.26685564785832
C         2.82596645862470   -0.17627569174735   -3.34875065404501
C         4.17530645186552   -0.53432231780354   -3.22238724835750
C         4.82009784139985   -0.42584740951784   -1.98306687529984
C         4.08986682431944    0.08756383604593   -0.89814936850191
C         4.80385571097766   -1.11096735634634   -4.47420737963088
C         5.70476141461348   -2.35775712296907   -4.26826964323587
C         5.01676636812961   -3.36926868997344   -3.33651860653063
C         5.46917688214480   -4.81038756000649   -3.55179176112551
C         5.02364213328775   -5.26307030791357   -4.92872127464814
C         5.07252770023556   -4.12599462497686   -5.92897561256100
C         6.12728413213490   -3.10484021096993   -5.54297912498249
H         0.26848101421157   -0.02960328842245   -0.25238350687453
H         0.38151381251194    1.73071332718766   -0.69748401356941
H         0.46002714027642    1.25718626459032    1.00803719087379
H         0.98406418500334    0.33808768594001   -2.39245966654484
H         2.25826088995672   -0.37081693197885   -4.25695613532494
H         5.83659969554614   -0.68673527149135   -1.70608676373449
H         4.47707583441492    0.14819946271322    0.11461174997897
H         5.35549866113250   -0.28025715723422   -4.93768978658471
H         3.93848876988316   -1.39841733017920   -5.08672288228335
H         6.57790392433105   -1.92215490575690   -3.75390781934565
H         3.92665520216301   -3.33265093113224   -3.43859521818420
H         5.28065739142444   -3.05723185673054   -2.31523005365287
H         5.14688163790592   -5.51415879487681   -2.77371387366029
H         6.56453324449421   -4.83714796398286   -3.62058828918483
H         3.98826167414537   -5.62733400253103   -4.92952831327495
H         5.79597981597775   -5.97426292670630   -5.24288258272487
H         4.09866101783836   -3.62479012553651   -5.91321077749530
H         5.15248165865197   -4.54709122572351   -6.93956280486224
H         6.17135978121401   -2.40502816515926   -6.38358352380663
H         7.16568647318656   -3.45852679254513   -5.45876306245775
