35
 energy: -44.221376338731 gnorm: 0.101550841533 xtb: 6.4.1 (025e99ea0bd20707e8cccc6e19fe66a0758c6dd1)
C         0.79889790289469    1.15959828940927    0.09502551891752
O         2.20200662760404    0.95495536167402    0.19543748498837
C         2.80761144402817    0.37428008528867   -0.88471348478804
C         2.06366269470832   -0.14637057654665   -1.94449289902901
C         2.69899105651136   -0.56424514474841   -3.11804799941410
C         4.09769741084789   -0.55952375188853   -3.21014458888752
C         4.79289012419350   -0.06590528605780   -2.09817082023168
C         4.19805386999303    0.43458676735100   -0.92789222295723
C         4.80408402961059   -1.04611735639035   -4.45870053408207
C         5.47821973403950   -2.41359347997442   -4.16874143309858
C         4.54890771631160   -3.50975819022599   -3.62151667620788
C         5.23136086457777   -4.86998316167356   -3.73054480156215
C         5.33974082980020   -5.34600710666481   -5.16616757784457
C         5.39795699263577   -4.15512326278249   -6.10117891362062
C         6.12338160289096   -3.00066463799417   -5.43391196716251
H         0.08539536646654    0.33956178566932    0.22651930964418
H         0.43352946901242    1.60759769443674   -0.83437979748713
H         0.65187819229285    1.98557072927423    0.79870194003459
H         0.98781448555424   -0.28550370324681   -1.88397893972669
H         2.21192906671131   -1.06382494964888   -3.95360993271242
H         5.87762656429468   -0.02935770220465   -2.08994718963620
H         4.76828250235961    0.71829629408870   -0.04832369403411
H         5.61597794081058   -0.34314277827811   -4.69504847298250
H         4.08595590626767   -0.97955832757170   -5.28726831449825
H         6.22179277457591   -2.32290714191764   -3.35906844697757
H         3.61366395400035   -3.67434115692798   -4.16771664149707
H         4.24822064845737   -3.28949462020653   -2.58657367660450
H         4.53141961133246   -5.49319683663154   -3.15935277260096
H         6.22851698260340   -4.89745898036788   -3.27209153461665
H         4.53248439644368   -6.00410180745357   -5.51250527673677
H         6.22195276557381   -5.99590972964506   -5.18423537614159
H         4.39150887650544   -3.91141448257824   -6.45830496301282
H         6.11291762347863   -4.44131659383021   -6.88343598897529
H         6.35021589600969   -2.18866661491341   -6.13212449501854
H         7.12415989436208   -3.32847592451917   -5.11540208993727
