35
 energy: -44.227501320493 gnorm: 0.081477481302 xtb: 6.4.1 (025e99ea0bd20707e8cccc6e19fe66a0758c6dd1)
C         0.90321217084217    1.20759501464077    0.61876640801221
O         2.22520879769937    1.33027085459616    0.11087771762049
C         2.68673232975128    0.74252667783776   -1.03464393855337
C         2.05111458978320   -0.18039131208851   -1.86643820622248
C         2.78347559944598   -0.84070948166731   -2.85796233326975
C         4.13235590984006   -0.60538344020185   -3.15800745922919
C         4.68858972721385    0.48771555090036   -2.48038198126618
C         3.97059610436980    1.09902647996996   -1.43891256309845
C         4.88397938063819   -1.31227663461420   -4.26706628835845
C         5.38199469042795   -2.74172346490732   -3.92473797297601
C         4.30225040865844   -3.83658563844471   -3.91568637551781
C         4.85264837775608   -5.25075652557148   -4.07387669453420
C         5.44059108742156   -5.38446448913636   -5.46520818527519
C         5.82731462858105   -4.03646311564208   -6.03894754031206
C         6.42617655007146   -3.12105181604530   -4.98649929439490
H         0.58083008622157    0.20186487657787    0.32995325859211
H         0.18682243830529    1.94291654844957    0.23918797216074
H         0.87702018106525    1.29113276053625    1.71025217977008
H         0.98275202584018   -0.36458993302030   -1.79473309032013
H         2.22934863234611   -1.53246192354189   -3.48993935983871
H         5.70062103006502    0.81069941524800   -2.70293658871159
H         4.48047609085939    1.86266740179085   -0.85911300187372
H         5.78037766565874   -0.69102310526534   -4.40749240249525
H         4.24271703718093   -1.26897659067138   -5.15789196204682
H         5.87371300161249   -2.68904226281025   -2.93876991448250
H         3.58839118316512   -3.71325503362945   -4.73745119348928
H         3.83629624764844   -3.65960997220536   -2.93507325187636
H         4.05119661935969   -5.99315255507899   -3.96853634755326
H         5.57894184114315   -5.52092847215039   -3.29621380817398
H         4.63252589852149   -5.82175433701514   -6.06563272260215
H         6.29288744634664   -6.07333498084064   -5.45841659362355
H         4.93650789696198   -3.48864812362216   -6.36488142525626
H         6.43518976996927   -4.23822942446827   -6.93045167675229
H         6.82386744934327   -2.27833668630156   -5.56092812141897
H         7.24336464031329   -3.68227035415764   -4.50931657753446
