35
 energy: -44.218201922608 gnorm: 0.100006667588 xtb: 6.4.1 (025e99ea0bd20707e8cccc6e19fe66a0758c6dd1)
C         0.84248787806805    1.39960677633358    0.15809462452044
O         2.15096249420110    0.84412524511281    0.15496074045841
C         2.67657298452607    0.27238171001191   -0.97087673207808
C         1.98850424012541   -0.24530322822796   -2.06916310258595
C         2.67290739941700   -0.62086706520461   -3.22935143650036
C         4.07433696110220   -0.61555013112803   -3.25851388018645
C         4.79792351039406   -0.21254865560211   -2.12827050878417
C         4.06725716257560    0.21245080281630   -1.00605100981696
C         4.79817845895411   -1.05134658262976   -4.51580552494130
C         5.59663091475006   -2.33273179040502   -4.15656770706078
C         4.81055275238796   -3.41683420333632   -3.40062067434678
C         5.23645155499154   -4.85979432643506   -3.65423001242779
C         5.28658506775580   -5.30791145845915   -5.10199913599022
C         5.24414033390353   -4.05365588653460   -5.95104628139386
C         6.16592852075891   -2.96235966959481   -5.43758755002684
H         0.05000063736207    0.78483173783900   -0.28105452785683
H         0.81969660074275    2.31524117315110   -0.44114323334211
H         0.66865331922051    1.52301291025071    1.23213291164810
H         0.92017041791517   -0.44311683490271   -2.07055852575945
H         2.12748431658188   -0.97926485557775   -4.10057918654038
H         5.87540219665486   -0.30843683852413   -2.03937939582921
H         4.63072670170948    0.47767405461461   -0.11641552749554
H         5.57288459336232   -0.37995098357972   -4.91362920322613
H         4.09628959722250   -1.06951558581803   -5.36060407080962
H         6.50310701159823   -2.11152255634608   -3.56829669474787
H         3.79576644454915   -3.28060153789342   -3.79017460249919
H         4.82871575427829   -3.30335539146577   -2.30662413397362
H         4.57126447270876   -5.60280356597836   -3.19593230242734
H         6.23223392870468   -4.92633354483767   -3.19679735138952
H         4.56506534784201   -6.07715698341230   -5.40592676222141
H         6.23922103041250   -5.78999378069041   -5.34914104222958
H         4.23719290193431   -3.75514454865067   -6.26220322928664
H         5.66283426124426   -4.28725205498945   -6.93853283030501
H         6.33757256248716   -2.24288046137855   -6.24454685107871
H         7.13445548534560   -3.44063068645568   -5.22859395183369
