35
 energy: -44.218075108501 gnorm: 0.085400357198 xtb: 6.4.1 (025e99ea0bd20707e8cccc6e19fe66a0758c6dd1)
C         2.28300913633455    1.92083845093584    0.54535262826671
O         1.52906497013618    1.39796618215266   -0.54039511818046
C         2.11941442254937    0.38672653229847   -1.24718290460689
C         1.63630637635568    0.31693448035912   -2.55462504518373
C         2.24628624599956   -0.39807488672547   -3.59008582258131
C         3.38383385590902   -1.14765124136102   -3.25992789576925
C         3.82020737747930   -1.14337106466656   -1.92838834394754
C         3.19706233906609   -0.42216841440161   -0.89619095886928
C         4.14797373018029   -1.84799890180006   -4.36457749333721
C         5.46862643055529   -2.51947126735013   -3.90248715343102
C         5.12675196631575   -3.81761722445884   -3.15242598324067
C         5.77615802016448   -5.02010558469177   -3.83075844286397
C         5.46044636964095   -4.96340505362618   -5.31280735318554
C         6.04834460299894   -3.74216156179316   -5.99014009953326
C         6.44342307850278   -2.58658441663508   -5.08857744537075
H         2.33638449092083    1.19963865908135    1.36745863656434
H         1.85850746411976    2.86670478294664    0.89624722027400
H         3.27037050279409    2.18403724818975    0.15184316725325
H         0.84939376842241    1.01186308879399   -2.83446806537118
H         1.91077601117586   -0.19982213918881   -4.60650199513397
H         4.80291438499287   -1.57872098218837   -1.77734569176407
H         3.72634283913046   -0.39728034438616    0.05172006478922
H         4.25618406310539   -1.04452873309378   -5.10749844497318
H         3.59598753267949   -2.69740021269793   -4.78942019349100
H         5.96520156951496   -1.84782640727002   -3.18206954175637
H         4.05712075970447   -4.05401596070190   -3.14205438194392
H         5.37976647844653   -3.65368803606215   -2.09452870835059
H         5.44687149286679   -5.97585253041723   -3.40333414050961
H         6.86652344431594   -4.92070119049392   -3.75028079912690
H         4.36687199834670   -4.94696998427982   -5.40514569403722
H         5.77787180599210   -5.80493851667133   -5.93895453008465
H         5.37212246410446   -3.38481641405230   -6.77429496936337
H         6.93349962565582   -4.04957341206810   -6.56197923577160
H         6.41414129905343   -1.64120438834784   -5.63966228452013
H         7.47417854596581   -2.60525389709997   -4.70431115079321
