35
 energy: -44.220895811681 gnorm: 0.100446691074 xtb: 6.4.1 (025e99ea0bd20707e8cccc6e19fe66a0758c6dd1)
C         1.23521342886993    1.30954312660004    0.68108511819659
O         2.42302302208601    1.70192117031133    0.00593830627268
C         2.84752361080678    0.86499465729314   -0.98905934518459
C         2.12946355762156   -0.11350469392981   -1.67797009301940
C         2.58833489018787   -0.90014977817315   -2.73915784685578
C         3.86928778021636   -0.63504133236701   -3.24290453763234
C         4.61774376723952    0.40833702449811   -2.68200081318729
C         4.04938580230397    1.14912210901505   -1.63220029725515
C         4.47572041782737   -1.50646875424524   -4.32341415103225
C         5.03977901146787   -2.86715179349722   -3.83463430395249
C         4.12356385058265   -4.07989762633054   -4.06797986816101
C         4.82710983068922   -5.38733536370057   -4.41936429788645
C         5.71430550469910   -5.25726731495817   -5.64219867157988
C         6.06724493289278   -3.80336291512795   -5.88185552102201
C         6.37079702194114   -3.12574138992197   -4.55786686573257
H         0.95457350930817    2.13556755971084    1.34272038635301
H         1.48505410006125    0.41568166114729    1.26124296048973
H         0.42867452236367    1.09036814588076   -0.02634903976676
H         1.17994996711809   -0.41810193948368   -1.24656101672666
H         1.96834700229304   -1.63096420958448   -3.25539266216599
H         5.58784502662542    0.64883203582362   -3.10522910367581
H         4.67335329769642    1.87311848284975   -1.11665553826213
H         5.35787627544715   -1.05812333925414   -4.80298974705782
H         3.62635963476770   -1.75883955664535   -4.97268906361500
H         5.19871387523212   -2.78659143520702   -2.74608253313653
H         3.36385381193313   -3.85328798603295   -4.82401662477020
H         3.63848526258905   -4.28968570865439   -3.10323975298894
H         4.10718347268174   -6.21575517155829   -4.41955283317029
H         5.42156886509970   -5.64087819803158   -3.53190211297273
H         5.20032225362755   -5.50584599234740   -6.57960533079723
H         6.55561073822826   -5.95069447939479   -5.53101398153062
H         5.16745767345547   -3.29101959511487   -6.23928804131358
H         6.88249124410681   -3.74596953699274   -6.61471356301258
H         6.85497794635707   -2.14987137106221   -4.66529991383584
H         7.03760366525686   -3.74741363003273   -3.94194601430691
