35
 energy: -44.222366366585 gnorm: 0.090605161911 xtb: 6.4.1 (025e99ea0bd20707e8cccc6e19fe66a0758c6dd1)
C         0.87256912146267    1.08481985091589    0.22099924754053
O         2.20668586663126    0.59484490612829    0.24806296114042
C         2.77743512842410    0.36244763421786   -0.97296278072821
C         2.05220398725153   -0.13270508774084   -2.05764375795670
C         2.68613116215466   -0.55322873558308   -3.23101029959470
C         4.08420121674904   -0.49658226889660   -3.31512231160052
C         4.84130393104316   -0.00235383619316   -2.24462173064852
C         4.16672461392384    0.35832379151854   -1.06617833434318
C         4.72956178238538   -1.05425410084332   -4.56698460671661
C         5.50132969773951   -2.35776439670276   -4.22969930973870
C         4.62642768975190   -3.38124162971700   -3.48693847152246
C         5.13969345568145   -4.80716842152129   -3.66338235011975
C         5.13151354310378   -5.31887275524916   -5.09077491409335
C         5.41536890320262   -4.14394057841247   -6.00444890543154
C         6.25834433840618   -3.05041932167796   -5.37368394494738
H         0.14052950824805    0.34639688061597   -0.12205450486948
H         0.81764816499595    1.96119511178595   -0.43240865924029
H         0.66338635904062    1.38927966125897    1.25180115202998
H         0.99144668078503   -0.31187944987888   -1.90546026605132
H         2.17607427974754   -1.03902407736777   -4.06096087917206
H         5.91498085305090   -0.04476351798785   -2.39783980072487
H         4.69747574988549    0.63635207174383   -0.16047634793637
H         5.50686723996290   -0.29557093575145   -4.73845301706174
H         3.98048304573323   -1.21477572679279   -5.35424347534924
H         6.34873223438151   -1.92445434047474   -3.67216315574113
H         3.63802140097271   -3.20898073746688   -3.92680441173457
H         4.56935728934174   -3.13256934666312   -2.41691939229277
H         4.63363245208154   -5.54960485704650   -3.03309370574330
H         6.12165112447231   -4.78121095857918   -3.17313752361176
H         4.18165303833286   -5.82547173439507   -5.30484004787270
H         5.95296047228069   -6.04094186909648   -5.16033712655424
H         4.48109041125457   -3.61351922268554   -6.21810208415233
H         5.94522123783043   -4.37570128538558   -6.93747888125597
H         6.60497553246193   -2.36133949168020   -6.15041499337712
H         7.20654745552995   -3.41891307830911   -4.95465033243280
