35
 energy: -44.222831271489 gnorm: 0.105856819372 xtb: 6.4.1 (025e99ea0bd20707e8cccc6e19fe66a0758c6dd1)
C         0.80769447444082    1.54928586467735   -0.01293795484586
O         2.14493795124143    1.09758953219937    0.15566120722778
C         2.79644829692239    0.49967985005104   -0.88774922490272
C         2.15544234840234    0.02015239752276   -2.03091763732193
C         2.81956434997937   -0.53347907353815   -3.12997495618607
C         4.21460378971283   -0.63984306501302   -3.04374750833738
C         4.87845224422670   -0.39598619781763   -1.83408772390667
C         4.14081661605159    0.15561406061743   -0.77318938940727
C         5.00457995477825   -1.14188669643449   -4.23477108644744
C         5.31173877701746   -2.66311881209681   -4.24046948924357
C         4.03357874081014   -3.50342779035686   -4.08286056590840
C         4.45390799653502   -4.96700062515141   -3.98736564956705
C         5.73061070058183   -5.24526449989175   -4.75675319185874
C         5.95479252352462   -4.39333884201715   -5.98955683937665
C         6.11871107248515   -2.96117409820649   -5.51385145150630
H         0.23436386821934    0.70240541710493   -0.40399022513422
H         0.80776919815803    2.40016988862652   -0.70140594412983
H         0.47250947562991    1.81744273815308    0.99440939168423
H         1.10801565640124    0.23495101104166   -2.22386375975896
H         2.27725493107892   -0.75534933192211   -4.04738826142220
H         5.94241829795848   -0.37670835694045   -1.62040317635754
H         4.76992029297882    0.28706506237724    0.10216298182935
H         5.88431171824772   -0.51312914406991   -4.43462423160243
H         4.42013263769888   -0.91514168029498   -5.13680806030463
H         5.96972468104185   -2.87813199145162   -3.38168016618384
H         3.44725045041840   -3.28861072809101   -4.98295812541646
H         3.46905248715179   -3.11476303555232   -3.22246206340830
H         3.55876720222137   -5.48602232816361   -4.35330663713722
H         4.61027213921302   -5.23209289761890   -2.93354831028104
H         5.85227837306379   -6.29828609366334   -5.04143527213310
H         6.56343967818173   -5.10111160812724   -4.05917624080523
H         5.11822219963403   -4.55098285924830   -6.67888205486346
H         6.86190721400954   -4.58080032782834   -6.57862609454012
H         5.91382950067472   -2.27766881678406   -6.34399565050841
H         7.12350631480306   -2.70714167638095   -5.14463603872225
