35
 energy: -44.226343686638 gnorm: 0.099317767494 xtb: 6.4.1 (025e99ea0bd20707e8cccc6e19fe66a0758c6dd1)
C         2.38834042794780    1.59803166601830    0.83202369894863
O         3.30190773410512    1.66580153294379   -0.25493416607181
C         3.25968616407050    0.68105817359446   -1.20317724248633
C         2.41858794115113   -0.43255623513219   -1.21244933901532
C         2.37563839800126   -1.28084243744958   -2.32333128531573
C         3.18610243383510   -0.95740104763032   -3.42033504446296
C         4.16419605946505    0.04400877720067   -3.35749405476875
C         4.14828390087585    0.90917197848716   -2.25064542155614
C         3.37300029032333   -1.92645205346080   -4.56953332097763
C         3.85421525036312   -3.35802859427434   -4.21239617522613
C         4.12164960002373   -4.19118502531423   -5.47690480098709
C         5.31914104888637   -5.10065321151701   -5.21859635188745
C         6.57228670516305   -4.25648062715366   -5.09070427959695
C         6.26751739246999   -3.04064380207586   -4.23941341777144
C         5.10018344711403   -3.33036794694309   -3.31331831324806
H         2.66119220685748    0.87262896753844    1.60544414454973
H         1.34968437582915    1.41996920026564    0.53625493139598
H         2.43640479577744    2.62444600059836    1.21040076226058
H         1.89589940388732   -0.62696270277596   -0.27999443696605
H         1.85559433538612   -2.22344050232938   -2.48468854434345
H         4.84870869196385    0.28114377761060   -4.16574274341735
H         4.77793252260369    1.79098502508303   -2.17825101436628
H         4.03157412988820   -1.44171577595137   -5.30473163790965
H         2.46304053805922   -2.13958072404378   -5.14677858114276
H         3.05450882517132   -3.82012271779444   -3.60937554946518
H         4.40654416884595   -3.50655674040835   -6.28326827217386
H         3.22784440363161   -4.80522512128992   -5.66157423059152
H         5.40349081730119   -5.79487021411446   -6.06448124140950
H         5.11386754256033   -5.69896770386835   -4.32130197486822
H         6.97368689746560   -4.09490974764520   -6.09940350286820
H         7.35243461617535   -4.84567964796219   -4.59551591563392
H         6.01479527790926   -2.22086631844441   -4.92056480080571
H         7.13672261046018   -2.62216741367602   -3.71561836323220
H         5.06738349925497   -2.48830215857468   -2.61464479017780
H         5.32729283005178   -4.29768301583644   -2.84088963740107
