35
 energy: -44.220695317838 gnorm: 0.094590259842 xtb: 6.4.1 (025e99ea0bd20707e8cccc6e19fe66a0758c6dd1)
C         0.94704521352061    0.86257270009351    0.27783150565255
O         2.29544271157301    0.42232885130681    0.18463862088531
C         2.90382179807899    0.31712411658854   -1.03580142769629
C         2.21449796355660    0.18186764269856   -2.24170671554600
C         2.88778868013790   -0.14986118853088   -3.42159163430777
C         4.27615659687084   -0.34303585803525   -3.42033667869203
C         4.96423741152012   -0.24224078495845   -2.20385697250766
C         4.25700274360429   -0.01025799554150   -1.01227082406902
C         4.95687626815389   -0.90181531491160   -4.65282747261438
C         5.28361879221782   -2.39473322758117   -4.38271341695782
C         3.94106534288515   -3.13183759549912   -4.24530809731852
C         4.04290045821434   -4.62729712111773   -3.96057696072436
C         5.47438056005726   -5.11222855020066   -4.08331243047924
C         6.10955026977982   -4.54477381156262   -5.33646613533495
C         6.20195941151785   -3.03292943703693   -5.43670533465771
H         0.27673276318845    0.21448785342286   -0.29619253920425
H         0.94449959610061    1.90541865118540   -0.05452018155657
H         0.76867506935133    0.87740012742381    1.35809536643926
H         1.14010901238543    0.30640023250929   -2.34490231910825
H         2.32201581948890   -0.17307142580104   -4.35128806170388
H         6.01804686715254   -0.36248950715035   -1.97346088888477
H         4.80239468572918   -0.20138056246955   -0.09286211732208
H         5.86348892539782   -0.39105082124343   -5.00832491736889
H         4.25712113311063   -0.83591052806713   -5.49702056688142
H         5.82374885015284   -2.49844620224767   -3.42657620867768
H         3.52598078929457   -2.88285585328322   -5.22806735517238
H         3.37159189296543   -2.68592649127215   -3.41651436934977
H         3.46006841816709   -5.33002085000364   -4.56972353478178
H         3.72988280237956   -4.81753343655779   -2.92564472432870
H         5.55203746617953   -6.20652868007967   -4.11763467884722
H         6.13486186827487   -4.79877283919031   -3.26691318822580
H         5.50886119488360   -5.00549855079088   -6.12815808629742
H         7.14727196786311   -4.90177973459588   -5.31035280111345
H         5.77651583242243   -2.68214876903338   -6.38235114838737
H         7.25905858698905   -2.73720686098933   -5.36217039046488
