35
 energy: -44.222392667123 gnorm: 0.101320872971 xtb: 6.4.1 (025e99ea0bd20707e8cccc6e19fe66a0758c6dd1)
C         0.65839171577338    0.93262857715014    0.10601408784220
O         2.07926759210979    0.92318144472198    0.14721942321610
C         2.65995669789827    0.48071794798635   -1.00936749186541
C         2.09801524699543    0.39075196733390   -2.28365049800907
C         2.81505846189518   -0.17020370629937   -3.34509791028077
C         4.14472404554049   -0.59150105956527   -3.20588040467126
C         4.78854590385066   -0.32423996040790   -1.99035472177002
C         4.02818318084004    0.22992707821608   -0.94698428340144
C         4.87865744215429   -1.16688110524705   -4.39958342550009
C         5.70278429210492   -2.46814378709841   -4.20969782804861
C         4.96735929824576   -3.49328106649268   -3.33055252052853
C         5.60964143773539   -4.85768298421708   -3.56233359626331
C         5.17834353636125   -5.27481843507670   -4.95493472592554
C         5.04820709275008   -4.12969206078375   -5.93859612267274
C         6.04271033782928   -3.03489521644758   -5.59706438528993
H         0.22718556067890    0.02437409879135   -0.32754261067354
H         0.31916711042317    1.73705260972535   -0.55415289515968
H         0.24538435676218    1.07668214356391    1.10984637525856
H         1.09042038015083    0.68829104595525   -2.56058444648828
H         2.45019977416329   -0.27622099925742   -4.36520162167808
H         5.79347784625671   -0.73181288953963   -1.94504916261890
H         4.47686666573279    0.38644302882910    0.02947794241160
H         5.51815905360258   -0.46221324767846   -4.95066075061842
H         4.08438148804940   -1.60591063193755   -5.01848686184339
H         6.70631660319631   -2.25696083413787   -3.80347143592555
H         3.87951008941929   -3.42998651985896   -3.44316135623685
H         5.12481322558754   -3.18482599900120   -2.28647421928447
H         5.20416266713112   -5.57305434935562   -2.83541946579745
H         6.70664137556871   -4.84962657473240   -3.52013319717649
H         4.17719988498589   -5.72027412993679   -4.89183163359606
H         5.87676004493983   -6.00218613384305   -5.38405985470522
H         4.00871108226371   -3.79326716516018   -6.01693595760568
H         5.25044853484872   -4.41658448584571   -6.97868871183633
H         5.90359516456857   -2.24545369189087   -6.34253361291639
H         7.02477084149195   -3.53017956131533   -5.62383291307652
