35
 energy: -44.216832778332 gnorm: 0.097795023732 xtb: 6.4.1 (025e99ea0bd20707e8cccc6e19fe66a0758c6dd1)
C         2.25563166276103    1.61938888092199    0.83145550962173
O         3.26948617209181    1.71726185739823   -0.16010654030054
C         3.28745301472615    0.82022890811741   -1.19242246588401
C         2.48804295291234   -0.32219747779808   -1.13347524129687
C         2.57832038463309   -1.26099091918336   -2.16595270689739
C         3.32415938841677   -1.00402174261844   -3.32464790250883
C         3.98506919959407    0.22849034290462   -3.41153830669522
C         3.99767329944115    1.14363886347854   -2.34560267237227
C         3.36838487432809   -1.98620007565479   -4.47704416916707
C         3.88129295711129   -3.42666653369072   -4.21151103668913
C         4.21052888397099   -4.12020687236007   -5.54389924317110
C         5.28926563144258   -5.18213468823543   -5.35290775769236
C         6.60804151697626   -4.46446417864565   -5.14045312117550
C         6.36110172167577   -3.24976801521591   -4.26903266133769
C         5.15356985080637   -3.34186599991528   -3.35380290717374
H         2.48138769062755    0.65831228338748    1.30495561405211
H         1.26938510901562    1.75302245734294    0.37598695333243
H         2.44905215018137    2.47593771206021    1.48561022121890
H         1.72925642275908   -0.31874206614940   -0.35585039653755
H         2.13596452624805   -2.24231900754914   -2.00381207165670
H         4.47063682037859    0.40442867500739   -4.36617241769124
H         4.47573365033158    2.11725046195758   -2.29239229365429
H         4.00747571164268   -1.51103993764589   -5.23532582769049
H         2.37779339855721   -2.00072302296301   -4.95157581542183
H         3.10240778773253   -4.05136371142739   -3.74269705843518
H         4.52235163799699   -3.47029123315879   -6.36881080245293
H         3.41053764073105   -4.67390019027627   -6.05719592543209
H         5.27954641805413   -6.03154673050271   -6.04787401169584
H         5.00408080957335   -5.67404619773042   -4.41378725027412
H         7.01631869002481   -4.10111236150173   -6.09228640143867
H         7.35344808483240   -5.06572886220382   -4.60767962955753
H         6.28035697650153   -2.37013759653826   -4.91679913812040
H         7.18652743730250   -3.20742452125994   -3.54661943109630
H         5.03096829461497   -2.54979521937277   -2.60822389931356
H         5.22529245369430   -4.27146125027276   -2.76970145362738
