35
 energy: -44.219638694433 gnorm: 0.091330798450 xtb: 6.4.1 (025e99ea0bd20707e8cccc6e19fe66a0758c6dd1)
C         1.75276588462017    1.42728494148812    0.62123505285060
O         1.32775310420751    0.51007477479226   -0.37814726870806
C         2.26310642250765    0.17892731442362   -1.31948811562669
C         1.86538890019934   -0.68815839182880   -2.33814036018988
C         2.77268348554449   -1.15195353968927   -3.29584774406942
C         4.11454778122808   -0.74918833315422   -3.25041731533096
C         4.49838974120875    0.21884510273104   -2.31285965330169
C         3.58684856829784    0.61082604020103   -1.31821495970313
C         5.07908378484076   -1.20410309546021   -4.32622872493717
C         5.82336973363846   -2.50974316819756   -3.93910006252509
C         4.85307224508843   -3.48673796164640   -3.25451493998235
C         4.88173856271975   -4.91199319465077   -3.79826779451429
C         4.65090582809030   -4.78122023216244   -5.29124215790124
C         5.64632740538682   -3.87753334374287   -5.99004509109527
C         6.62607245511031   -3.17245206461339   -5.06959911941459
H         2.52677111445863    1.04171731405157    1.29286729075903
H         0.84822076455701    1.55230482247726    1.22469172814290
H         2.00204218502472    2.39181278656294    0.16675388659473
H         0.79730871932436   -0.88734063469424   -2.33744011918947
H         2.43432841663850   -1.75026134361076   -4.13995479827348
H         5.49299116422866    0.64186629118146   -2.41224561702106
H         3.89900032561987    1.45771378679942   -0.71436481311188
H         5.73189869959903   -0.32148863622875   -4.38970891091251
H         4.43673501075291   -1.38081663452306   -5.19962614612101
H         6.58301917358700   -2.24487466793933   -3.18446596025552
H         3.83035496803270   -3.19902799556476   -3.52167631122042
H         5.02672938914310   -3.39664996967963   -2.17203486340914
H         4.07983255833156   -5.44897601065566   -3.27561151069593
H         5.79438996547873   -5.49162019456929   -3.60759897188743
H         3.66288130610357   -4.33552171224232   -5.46404771222479
H         4.62619826250755   -5.75304734882003   -5.79714665053213
H         5.25494905953331   -2.93849281704564   -6.39611980892095
H         6.06433484305827   -4.35302974486392   -6.88680281269627
H         7.23670378136537   -2.42155313976235   -5.58104364993235
H         7.36481551045974   -3.81474111076529   -4.56741444408894
