35
 energy: -44.218738142171 gnorm: 0.110558455420 xtb: 6.4.1 (025e99ea0bd20707e8cccc6e19fe66a0758c6dd1)
C         0.78085802319943    1.33960068675539    0.15176203561077
O         2.19083154395301    1.19767506947497    0.03992654877969
C         2.62502177405562    0.51207680695444   -1.06102801662671
C         1.94737200077918   -0.08860353287499   -2.12293346171835
C         2.76357486951458   -0.69872633532934   -3.08056381619523
C         4.16149729399984   -0.80172493401646   -3.07119824103277
C         4.76813350655641   -0.00125988277807   -2.09411791015274
C         4.01017717364812    0.64722227742192   -1.10475066311556
C         4.89260499501808   -1.44514389292573   -4.23143136505371
C         5.66607704157711   -2.71807713590980   -3.79564687696858
C         4.71908914253750   -3.82529327514337   -3.30377375366076
C         4.79348495253613   -5.06153942694889   -4.19484171863807
C         4.72023996299803   -4.72579462199589   -5.67175348476733
C         5.92331322525277   -3.90483082332856   -6.08945291594930
C         6.59726870636665   -3.28290691741505   -4.87980196579903
H         0.44159113109888    0.38568139032491    0.56862209676202
H         0.28346307307278    1.53501318008144   -0.80343638565995
H         0.53841716107985    2.18386125007372    0.80556039900920
H         0.86810376778771   -0.21250652905107   -2.10568647188229
H         2.20119288952903   -1.19292346610366   -3.87079720983578
H         5.81741785814430    0.22781231290552   -2.25091324700635
H         4.58019867914195    1.20647558243878   -0.36881328877437
H         5.63502080207250   -0.78396455416144   -4.70139516446381
H         4.07451906697290   -1.61010206544844   -4.94570504661110
H         6.35990220255239   -2.50948326504991   -2.96390745738587
H         3.67069237081300   -3.55032837940796   -3.46302627314196
H         4.86207205038910   -4.06757679182370   -2.24034046967551
H         4.00526554517213   -5.78100301048116   -3.93860804999996
H         5.73283298825903   -5.61856859550206   -4.08259905706475
H         3.88842338195234   -4.05937279727656   -5.93379262874398
H         4.54401878235420   -5.62480166561352   -6.27319358536205
H         5.68368228477805   -3.16101254234721   -6.85703494520791
H         6.70078039206065   -4.56168148120536   -6.50066268615444
H         7.11198694988603   -2.37201719348049   -5.20173419774404
H         7.37862523061171   -3.96253724034526   -4.50825039151504
