35
 energy: -44.224307008147 gnorm: 0.084708521607 xtb: 6.4.1 (025e99ea0bd20707e8cccc6e19fe66a0758c6dd1)
C         1.50960824367997    1.45949042952297    0.64539381124311
O         1.96418102513067    1.79650168029673   -0.65862397613622
C         2.48799854917384    0.76777608588057   -1.39211286080162
C         2.75197411641157    1.11435816820169   -2.71795863999589
C         3.21049559775373    0.07200146519242   -3.52958873486933
C         3.42274797163471   -1.21013131880736   -3.00426219140708
C         3.10578787434091   -1.58454510424644   -1.69171186280278
C         2.58587728401901   -0.53632508808626   -0.91402154947552
C         3.98058483904196   -2.25136387687075   -3.95257654542277
C         5.51026918545016   -2.33042012769284   -4.20226047335591
C         6.15416748943564   -3.39348438850861   -3.29675388839605
C         6.38879217283990   -4.78721075033011   -3.87148816060810
C         5.34852308637634   -5.07261680867277   -4.93719983589370
C         5.34695607311389   -4.05564686361810   -6.06041367144851
C         5.83271878822734   -2.67284750974382   -5.66524119534876
H         0.69577601421415    0.72708594065873    0.63553864979197
H         1.07108296664768    2.35499462082437    1.09679122887389
H         2.30423201160643    1.05670276934303    1.28205772412600
H         2.39616312721437    2.08133601599379   -3.06266389592717
H         3.45343833492536    0.26218813673638   -4.57351447972236
H         3.15067521554393   -2.64567397964901   -1.46799972309211
H         2.17507410356547   -0.68889057493825    0.07958657279419
H         3.57423782188874   -2.10110579776444   -4.96327429171488
H         3.67615125121964   -3.22434858524082   -3.54357334119477
H         6.00796263227855   -1.36487805386562   -4.01062292435354
H         5.44051831549715   -3.49593258311530   -2.47194356231288
H         7.14067092890865   -3.00806459373063   -2.99960357253634
H         6.33998205194529   -5.57283887219845   -3.10664870055769
H         7.42157850426375   -4.82703337697938   -4.24165189801687
H         4.36849084161600   -5.15385760503138   -4.44971843410191
H         5.51673223918315   -6.03312358138742   -5.43733000257291
H         4.37227843430040   -4.05398420870319   -6.56028518409402
H         5.98967419196673   -4.36389741673547   -6.89521692548318
H         5.45578643827831   -1.91232523308959   -6.35648875385664
H         6.93286896586237   -2.68156891916522   -5.67295429645660
