35
 energy: -44.222854144520 gnorm: 0.104059837045 xtb: 6.4.1 (025e99ea0bd20707e8cccc6e19fe66a0758c6dd1)
C         0.92589101751758    1.13168948305365    0.39298257059826
O         2.30591497888400    1.23627469484619    0.06852737292932
C         2.83148924280865    0.56739423936048   -1.00247108908749
C         2.11325794313490   -0.35029495074257   -1.77036404890073
C         2.76535596802555   -0.80717969739113   -2.91993672851768
C         4.08928034401778   -0.54774298317577   -3.30046316517181
C         4.70965365485709    0.40318928233695   -2.47930389986471
C         4.14982644819597    0.90798530362522   -1.29370323923885
C         4.72937679549661   -1.27827787483184   -4.46289278954271
C         5.30734051985364   -2.62072186737785   -3.94104199942413
C         4.24840438985479   -3.72561824197916   -3.79100496153169
C         4.91712174547284   -5.08702637631899   -3.95600919700383
C         5.35395670133230   -5.24206781285855   -5.39978727733413
C         5.74085564716717   -3.90289177951304   -5.99372027821678
C         6.40246375541650   -3.04064225391042   -4.93397444418885
H         0.69530522398399    0.07395204392840    0.55686685287440
H         0.30925488577195    1.53768250757427   -0.41505291452936
H         0.67082015045567    1.62316481952747    1.33765003241206
H         1.10985635291147   -0.71601180910814   -1.57059980630580
H         2.31468922632433   -1.64463854754737   -3.44959253847952
H         5.74852284565946    0.57299358217331   -2.74382951725053
H         4.83836069249674    1.43007897509920   -0.63595604357872
H         5.54663039680805   -0.66040590666248   -4.86231250058348
H         4.09401842178212   -1.52680308736285   -5.32383275277450
H         5.71116434126119   -2.35886516074309   -2.94854383161586
H         3.42245963913881   -3.66475930989304   -4.50809234143688
H         3.84676091228927   -3.73896357303777   -2.76702244867252
H         4.16085363145952   -5.86794503054975   -3.80501922293654
H         5.68942571710212   -5.26075349333202   -3.19533836981334
H         4.50659770299708   -5.62243543576484   -5.98459885949517
H         6.12936725797357   -6.00852689838793   -5.51058756612592
H         4.84780874760444   -3.41745563405084   -6.40199687699923
H         6.49525977597686   -4.09448154019884   -6.76778050410637
H         6.83892668127411   -2.22493473862564   -5.51913825594179
H         7.19534950116984   -3.50394894845618   -4.32804947110770
