35
 energy: -44.223720188759 gnorm: 0.082159342918 xtb: 6.4.1 (025e99ea0bd20707e8cccc6e19fe66a0758c6dd1)
C         0.88372188808839    0.90626736154967    0.55113826638879
O         2.18105694316270    1.23741948265715    0.07371246762991
C         2.73997069209788    0.66141317827836   -1.03376178239366
C         2.05901450392466   -0.01822084092467   -2.04473433168765
C         2.76375620352414   -0.63223201174885   -3.08484117604946
C         4.15252279187968   -0.47640891297731   -3.19406584849667
C         4.84559663423614    0.22340140610720   -2.19739544332114
C         4.12534350062732    0.76995236361464   -1.12203880142242
C         4.82766425548549   -1.11937410702791   -4.38797835240317
C         5.42939396074683   -2.52572083439820   -4.12599285936610
C         4.37832515634605   -3.59460793230186   -3.78337417484560
C         4.92423592734889   -5.01742476051545   -3.85696154765881
C         5.38656452533123   -5.38997102115102   -5.25224622014260
C         5.59986442795394   -4.18019160369077   -6.13925048143965
C         6.23639339815518   -3.07870313019528   -5.31111114084053
H         0.84478264806758   -0.18241834926418    0.66106329795879
H         0.03419381589470    1.34529550423518    0.01864588168404
H         0.81834080071073    1.40828708263854    1.52206940762349
H         0.98730390554009   -0.15130184048194   -1.92559089223261
H         2.26076918188036   -1.41976433046263   -3.64320485674518
H         5.92746095158094    0.16783770358158   -2.13002515660613
H         4.64787055842610    1.18240268622059   -0.26405116676646
H         5.68082252860296   -0.48022894833919   -4.65782969625712
H         4.17885920937734   -1.09204458496298   -5.27396242079269
H         6.16524705804736   -2.31727800485703   -3.33115512469575
H         3.57331425409724   -3.44340265591425   -4.51083363156621
H         3.84977928062212   -3.32553193237655   -2.85694386114270
H         4.19637216156195   -5.81021047465668   -3.64183711019496
H         5.77642551423982   -5.20868051105716   -3.19179330853440
H         4.67161738603062   -6.06549625999119   -5.73929614077336
H         6.24264276482240   -6.07350503590442   -5.22209556751244
H         4.63432571362463   -3.91522458168364   -6.58354572370492
H         6.27816530149560   -4.36570362669851   -6.98215894074485
H         6.56399806220035   -2.22128780124136   -5.90760879913562
H         7.13409073582099   -3.47085736764400   -4.81029129999620
