35
 energy: -44.221604067769 gnorm: 0.088671497409 xtb: 6.4.1 (025e99ea0bd20707e8cccc6e19fe66a0758c6dd1)
C         0.82127219031848    1.22948707167030    0.30112405569828
O         2.23118554516279    1.21726169499444    0.12037493205115
C         2.78258967393112    0.53358963991051   -0.92805869663532
C         2.08303230473187   -0.22768266029011   -1.86547707232771
C         2.78634330971429   -0.75207286984783   -2.95444969777268
C         4.14470993237018   -0.53764833119409   -3.22601141807638
C         4.82146284932963    0.19302798996567   -2.24033634574792
C         4.14031830613118    0.75227567595743   -1.14618892536777
C         4.72029553544708   -1.28169511603916   -4.41333737217351
C         5.37412786066573   -2.63028689536373   -4.01043579562316
C         4.35282483094081   -3.75548975626690   -3.77482705433447
C         5.03767221263095   -5.11477547461113   -3.88050489591952
C         5.40608438618471   -5.27666286541012   -5.34249761590007
C         5.71241081113015   -4.00072637953351   -6.10011879822020
C         6.32297772336090   -2.96675769416916   -5.17147593596549
H         0.41691601436619    0.31840919417230    0.75419086941851
H         0.37619575045697    1.26304757193044   -0.69826198411578
H         0.66820276476644    2.03018756005413    1.03218783449150
H         1.00715382160653   -0.36240030299019   -1.79615196236108
H         2.28706013517524   -1.41285083001959   -3.66089283488160
H         5.88608214212492    0.40346896100535   -2.25922674797316
H         4.63187386771387    1.32389100180045   -0.36457416678640
H         5.43139130334683   -0.57937155599752   -4.87191097792927
H         3.88725181310674   -1.55790489052376   -5.07394996049377
H         5.94488783960067   -2.46264128986211   -3.08155301504137
H         3.45420019961317   -3.79915605800975   -4.39986295426646
H         3.96236181837737   -3.56123804971096   -2.76495543982658
H         4.33274191089007   -5.86366223142666   -3.49734008606644
H         5.96796916811663   -5.17245975922707   -3.30044046753928
H         4.51213037204461   -5.60462215038985   -5.88838250781604
H         6.21160373533828   -6.00746400069452   -5.47690759866159
H         4.75551499876546   -3.67324745264400   -6.52080722555250
H         6.28284492234633   -4.30810178152111   -6.98619257893652
H         6.47877219007361   -2.05549471237823   -5.75766974768596
H         7.30904525896571   -3.18510805635489   -4.73505881319393
