35
 energy: -44.215280835113 gnorm: 0.095551742429 xtb: 6.4.1 (025e99ea0bd20707e8cccc6e19fe66a0758c6dd1)
C         2.35028861403454    1.62532063038116    0.99872909931920
O         1.75367869170513    1.07863659764081   -0.16997468638334
C         2.47713376431745    0.50101773482579   -1.17676973539524
C         1.58871121981278    0.03443230430369   -2.14665254377295
C         2.14176595159787   -0.69900638826065   -3.20102011887479
C         3.53284492903847   -0.81803856297268   -3.32597655109854
C         4.40500360959119   -0.25536313321213   -2.38460876218309
C         3.86232193969671    0.38477954392520   -1.25784863869091
C         4.12897565256650   -1.41090945650348   -4.58604780423549
C         5.07073933945893   -2.63057288270890   -4.40157981769895
C         4.17460104365632   -3.84765622685556   -4.11821235515183
C         5.13087376580967   -4.98839676797456   -3.78340658337941
C         6.51014313599945   -4.80448588129699   -4.38602633102794
C         6.21600700053697   -4.31739384942006   -5.79032862655035
C         5.95315611866191   -2.82953582591824   -5.64387496290069
H         2.70887615226369    0.80752521111749    1.63233937637803
H         1.49295797997503    2.16133937247262    1.41784709613143
H         3.20620202162028    2.28096334733952    0.80754690522438
H         0.51314682818392    0.06697067512063   -1.99641334912394
H         1.42654203331204   -1.17533146076421   -3.86925829532773
H         5.48471509374171   -0.35052839476894   -2.44138160236727
H         4.44562962033914    0.78826816455321   -0.43550950873051
H         4.59673118501472   -0.54587780723213   -5.07811520613612
H         3.31924797008476   -1.71977409299508   -5.26103401211604
H         5.67270076496896   -2.55276957322613   -3.48055630982381
H         3.55046073828536   -4.09637424461943   -4.98348172187793
H         3.60530257187213   -3.63516042518234   -3.20127148986436
H         4.64475502073665   -5.76309506602421   -4.39012273625466
H         5.17541825456496   -5.31844295936069   -2.73729954183443
H         7.06088067110890   -5.75389982523858   -4.38437795316364
H         7.12600563774992   -4.04164290057005   -3.89635120362582
H         5.26346627028666   -4.80861009730050   -6.01669901165250
H         6.96176389346824   -4.59076629483022   -6.54803280347478
H         5.49180268307325   -2.53574879839518   -6.59210357859755
H         6.86080469739845   -2.26751908313497   -5.37783510241618
