35
 energy: -44.225779917403 gnorm: 0.093524544720 xtb: 6.4.1 (025e99ea0bd20707e8cccc6e19fe66a0758c6dd1)
C         2.47343743188720    0.56731331641512    1.03606881311429
O         1.72516122295232    0.65799056564316   -0.16914309031682
C         2.46539089492458    0.36910713669762   -1.28236968745312
C         1.75374579539401    0.30463537914188   -2.48114985374650
C         2.37121536812538   -0.11577198121647   -3.66330120491060
C         3.73014105052712   -0.45774810300485   -3.69875332691050
C         4.47805030662066   -0.26212907533282   -2.53007772170157
C         3.84166849671675    0.17041886106680   -1.35457999862146
C         4.12812425516321   -1.19633596665234   -4.96000058976783
C         5.03523979386284   -2.36699465686701   -4.49607622011027
C         4.25607744671333   -3.33326347485353   -3.58839596232979
C         5.20295958977230   -4.46700415265305   -3.20644349038119
C         6.39013927590802   -4.71918242706158   -4.11549149855785
C         5.85729543746408   -4.55415007392871   -5.52427871383445
C         5.57209994796931   -3.07994483095614   -5.74708624992668
H         2.94472860459665   -0.41118863298025    1.17483091428011
H         1.80218562927779    0.71814070342705    1.88734075508697
H         3.24127922454746    1.34770981826554    1.05621950995074
H         0.70366416737310    0.58196034956061   -2.51096199823677
H         1.87883175242107   -0.14166362232264   -4.63379649085182
H         5.55506809126155   -0.38327593298684   -2.47166018041235
H         4.36231282039542    0.29210374677406   -0.40937375209454
H         4.79027994854551   -0.60100621082506   -5.60524290243907
H         3.30380633728160   -1.60678196247889   -5.55891353714772
H         5.91705158942502   -2.06055172900596   -3.90854246430494
H         3.37900294592462   -3.67663061324918   -4.14780831625823
H         3.88990417828796   -2.87719669318688   -2.65675440269951
H         4.57464378068735   -5.35775559992694   -3.33432812836928
H         5.49645502703952   -4.50131651148433   -2.14911774426000
H         6.71189763689355   -5.76375818314257   -4.01531947620131
H         7.22552696369326   -4.05975363257079   -3.85418929624044
H         4.99696468819091   -5.22406288124733   -5.62877095690414
H         6.61068968659202   -4.84721145557514   -6.26691832408949
H         4.82943181721668   -3.03595204848177   -6.55008314013573
H         6.46865886936817   -2.50649294008356   -6.02601455825653
