35
 energy: -44.224736499921 gnorm: 0.087157892827 xtb: 6.4.1 (025e99ea0bd20707e8cccc6e19fe66a0758c6dd1)
C         1.01065341030297    1.27347608838597    0.55051527904244
O         2.34710229782846    1.28851574669933    0.06641451488011
C         2.72659474125804    0.60261209533835   -1.05438374114596
C         2.08667810894990   -0.41073509184477   -1.76943857175292
C         2.76572058292724   -0.89169686355910   -2.89330241425065
C         4.09328575020521   -0.61410054508406   -3.24741331452022
C         4.63740266208384    0.49237805314835   -2.58177103617180
C         3.95727903962132    1.07723701193932   -1.50045410760633
C         4.75814805631529   -1.38968304797457   -4.36592894338929
C         5.36985770285012   -2.71812124361648   -3.84670890815572
C         4.23982808937747   -3.76094332698953   -3.86113163784631
C         4.79304075349846   -5.14435407027466   -4.18972237324859
C         5.32171524111039   -5.24549920167944   -5.60733681970706
C         5.94416001185987   -3.90731601716090   -5.95036440243672
C         6.52297302672329   -3.16921501858609   -4.75686401611246
H         0.94042691580686    0.63713181532436    1.43875542622264
H         0.26373819936460    1.00057089237824   -0.20156996823725
H         0.80215618824961    2.26533295121496    0.96494819293507
H         1.15787003932086   -0.93187592922193   -1.55450343205465
H         2.20625736214198   -1.66378250441891   -3.41852405777980
H         5.61149817148440    0.90988541016615   -2.81604018173204
H         4.42854598227507    1.69180920325577   -0.73920442626449
H         5.57671307333350   -0.78179658706126   -4.77779140446940
H         3.99922371912382   -1.56631530438201   -5.14020122499635
H         5.70379941845111   -2.61554343746511   -2.80045083987546
H         3.52621901862758   -3.49816091826113   -4.64968116231221
H         3.68037574854125   -3.79131776310560   -2.91449219277987
H         3.98753561792924   -5.85331135803683   -3.95925671949952
H         5.54164671713263   -5.34841454141275   -3.41306087738541
H         4.52740837554923   -5.55151944563782   -6.30025066732583
H         6.02134083171262   -6.08879574263715   -5.62664333953269
H         5.18239908332884   -3.20774460793692   -6.31118420230328
H         6.72264265400112   -4.04799989807618   -6.71139940799119
H         7.15336387117241   -2.32361266062718   -5.04988168925115
H         7.14449177423068   -3.87471253546812   -4.18550277269174
