35
 energy: -44.219175582380 gnorm: 0.091299631841 xtb: 6.4.1 (025e99ea0bd20707e8cccc6e19fe66a0758c6dd1)
C         2.55469414886892    1.51915804177248    1.16456011742956
O         1.93984079007127    1.16423711992982   -0.06696814478269
C         2.59765113012868    0.56090131572014   -1.10327820687641
C         1.69758913799558   -0.01033693299455   -2.00396935294210
C         2.16689222652862   -0.61115628716566   -3.17625923627411
C         3.54985553927530   -0.66965796696479   -3.39733288369329
C         4.43978852894762   -0.05052845829962   -2.50956281614328
C         3.97258589600982    0.53696390718317   -1.32193961259192
C         4.25185889445792   -1.31433617384541   -4.57471499283311
C         4.89056511529264   -2.71966858905745   -4.41464834758997
C         3.92516393140509   -3.91287064084827   -4.50910598991498
C         4.68067782171387   -5.09955208389034   -3.91848993903886
C         6.11549945169226   -5.07884765207329   -4.40860827734608
C         6.37269528076406   -4.29566322004410   -5.67995091420156
C         5.98032991307158   -2.84145856013506   -5.49127397847346
H         3.52525933646332    1.03655677511159    1.31927142025737
H         1.84056431373493    1.33715140003319    1.97380912846287
H         2.65436200411014    2.60936867116677    1.18720677051506
H         0.66746299350931    0.27030321953159   -1.80259763192867
H         1.50395760545788   -1.15394340473322   -3.84772996300601
H         5.47718652093608   -0.19338790238246   -2.79496268427279
H         4.68483173941401    0.90824318021227   -0.59108385515530
H         5.03523970115227   -0.58769628985773   -4.83455017286913
H         3.51409644601700   -1.39789397988338   -5.38427495685306
H         5.34647633049337   -2.75886027985643   -3.41100289479936
H         3.85197309389438   -4.25852636033957   -5.54605732704054
H         2.94694065323006   -3.74826948197204   -4.03368886773265
H         4.24244473874631   -6.07798748122522   -4.15341399849917
H         4.69326099065581   -5.06341544448087   -2.82131609235820
H         6.60540891445074   -6.05854403789871   -4.33871481609862
H         6.70516332206104   -4.52886583915117   -3.66643963725468
H         5.70866544714461   -4.64882704495033   -6.47632424932152
H         7.41666986928377   -4.49786949462930   -5.95240483386645
H         5.59459776571917   -2.48899190702016   -6.45318524766381
H         6.88931539463868   -2.29785882615262   -5.19343057659027
