35
 energy: -44.222018153401 gnorm: 0.109775556002 xtb: 6.4.1 (025e99ea0bd20707e8cccc6e19fe66a0758c6dd1)
C         0.92561936548524    1.12893572929270    0.42519137294143
O         2.28120123761452    1.28511819942052    0.02684453668757
C         2.75959842533720    0.61413291189267   -1.06475152274230
C         2.00022409197470   -0.22833181002053   -1.87793850192164
C         2.68401255215047   -0.83977662510590   -2.93342959253563
C         4.07866634220742   -0.77256723768021   -3.05715207112998
C         4.75661803600884    0.20521012564856   -2.31703673813048
C         4.09825825088491    0.91659202657980   -1.29999561572168
C         4.70412960697532   -1.28331343426500   -4.33878438236787
C         5.45258861379722   -2.60736653299625   -4.03020911236502
C         4.37299929473838   -3.65798341440175   -3.72143101507946
C         4.86245704980447   -5.07752151123200   -3.99195662466581
C         5.41403607636891   -5.25255566015585   -5.39355620884362
C         5.69058385448136   -3.94344073569125   -6.10459706036814
C         6.44762978227987   -3.10587910751980   -5.08988885316885
H         0.81717110569010    0.08614178981886    0.74087496791181
H         0.25112526144586    1.56540111251462   -0.31814399774766
H         0.81682090734079    1.70494002713658    1.35006310140961
H         0.93815584820454   -0.42873408027047   -1.76694615567896
H         2.04673324502984   -1.50819406991986   -3.50968155058410
H         5.76855259503270    0.35333303985679   -2.68049863887848
H         4.73502434601446    1.58296767952289   -0.72574392134832
H         5.42565387057781   -0.56131206346986   -4.74783460716360
H         3.97748357423989   -1.48505388560357   -5.13750148309279
H         6.02338371021553   -2.39858154909940   -3.10972173344061
H         3.48867156830031   -3.48524144117795   -4.34451009161557
H         3.98074521432784   -3.56987506320613   -2.69751235498338
H         4.02641478153809   -5.77503889328058   -3.85383999234413
H         5.66650896436465   -5.22779128916238   -3.25971748590844
H         4.77669809831028   -5.81821473209853   -6.08531592354958
H         6.36260704021580   -5.79121446078095   -5.28840114136031
H         4.74750826369012   -3.50031275352353   -6.44240886845001
H         6.38853568955873   -4.05465767179912   -6.94453484840736
H         7.02206364843251   -2.28785020902888   -5.53615085690506
H         7.12108306437272   -3.73331969893401   -4.48719079209619
