35
 energy: -44.222523226458 gnorm: 0.096040284559 xtb: 6.4.1 (025e99ea0bd20707e8cccc6e19fe66a0758c6dd1)
C         2.66124560748876    0.89337963302950    1.17257549716383
O         2.00104166258885    0.82314919543808   -0.08435481611246
C         2.64949414969226    0.43500454979671   -1.22431980742871
C         1.80095356681568    0.47139843585929   -2.33171477768299
C         2.25451198399230   -0.11601087537819   -3.51692695727894
C         3.59834619010247   -0.50561567272280   -3.60178710800175
C         4.49805288173393   -0.23536613525082   -2.56210888532324
C         3.98912456840249    0.06034855098582   -1.28640545541021
C         4.12866799591364   -1.16296195443788   -4.85928540668911
C         4.77848331392771   -2.53673058227219   -4.54460147451437
C         3.83986171025070   -3.65558896542538   -4.06314718895422
C         4.67395998327418   -4.91015701784245   -3.82194089854195
C         6.18144362841804   -4.80315608482516   -3.94604418691203
C         6.58501597531298   -4.22412123989078   -5.28682293690759
C         5.65219962487084   -3.09291296574144   -5.67986524052636
H         1.94057080608809    1.41323998235825    1.81227027190506
H         3.59532414159692    1.45624888906422    1.07947719656530
H         2.84623487252115   -0.13651563406696    1.49522155573790
H         0.75696089453004    0.71112401253892   -2.14983493965110
H         1.61072854810163   -0.27859266692795   -4.37952950101396
H         5.53116794226079   -0.50484872065599   -2.75732388654685
H         4.60676689485597   -0.07397918189077   -0.40336152265852
H         4.84111296106153   -0.51830739669785   -5.39411995213846
H         3.31691376930910   -1.44538626540268   -5.54335722523984
H         5.51447370216581   -2.26408099499514   -3.76956884749652
H         3.07383233666400   -3.78624562552529   -4.83530694273210
H         3.26595847015717   -3.37225420856268   -3.16850075063039
H         4.34740586841987   -5.58089754141264   -4.62695203867196
H         4.44250079919874   -5.18740825559672   -2.78520899511137
H         6.67699792298671   -5.77637197339123   -3.83659940277667
H         6.61935709132049   -4.17334899945442   -3.16337401518167
H         6.62041764569918   -5.04902679432058   -6.00664815299774
H         7.55804828830981   -3.73513670724023   -5.14860679429217
H         4.96364044638451   -3.47868242342180   -6.43839243406829
H         6.24387054450442   -2.26985463005582   -6.10761103606901
