35
 energy: -44.223554566507 gnorm: 0.086695214317 xtb: 6.4.1 (025e99ea0bd20707e8cccc6e19fe66a0758c6dd1)
C         1.07113628837292    0.49991456776034    0.34569356049483
O         2.38717335799876    1.00253773994788    0.15571524489012
C         2.93894829200258    0.59466731080184   -1.02743867465951
C         2.18589510307227    0.21221310161921   -2.13843322773850
C         2.83919576552616   -0.24374443738606   -3.28769115936974
C         4.23226579768263   -0.39361806519770   -3.32984892263784
C         4.99042959382759    0.08928144553189   -2.25493802125452
C         4.32854432434277    0.56881153631870   -1.11220742945730
C         4.85959004170635   -1.12119455813422   -4.50106369207882
C         5.49332636594517   -2.49063831285501   -4.13839549485269
C         4.59838585163577   -3.48844847050663   -3.38466531698621
C         3.84133668410585   -4.33425886924552   -4.40413710501630
C         4.79880137321121   -5.27558443979416   -5.10878262296413
C         6.18380460613335   -4.67712048608681   -5.24823364694666
C         6.10071996433210   -3.16693422669255   -5.37744339688948
H         1.07962511729929   -0.05044249329946    1.29219839572463
H         0.86221854687210   -0.28041156285166   -0.39284303958921
H         0.31274033218569    1.28958593128524    0.36183294424498
H         1.09978209188657    0.22557891565468   -2.11295388823525
H         2.17035022142537   -0.44242176883062   -4.12324250279271
H         6.03063180099054    0.30611682118371   -2.47633871553763
H         4.97094313938097    0.86417465237200   -0.28796416411065
H         5.53229478271691   -0.49393476031960   -5.10374004254646
H         3.99952397330184   -1.30566683404605   -5.15902950201650
H         6.38544886291354   -2.33347095583146   -3.50902192716459
H         3.94522270901468   -3.07303357734031   -2.60948068097620
H         5.25368649276752   -4.16549574190156   -2.81701769363326
H         3.34115563236187   -3.60022759643551   -5.04880010285445
H         3.01250373046231   -4.87817720756728   -3.93249802972181
H         4.43650441194443   -5.52929053586614   -6.11331013090333
H         4.84273866147056   -6.13260771390377   -4.42718275045713
H         6.66204353021670   -5.12284896405217   -6.12714459210781
H         6.82898232048902   -4.82397836478955   -4.37234556180053
H         5.47139624271555   -2.96683097794073   -6.25048730285635
H         7.07382240841503   -2.72239741338562   -5.63420129902625
