35
 energy: -44.218331914348 gnorm: 0.100144989953 xtb: 6.4.1 (025e99ea0bd20707e8cccc6e19fe66a0758c6dd1)
C         0.91213874946311    1.34878268572604    0.15634631814364
O         2.20400587761660    0.76021680269756    0.22945518445192
C         2.73934883039497    0.18404233753785   -0.88951666011502
C         2.00294257978703   -0.26087527613559   -1.98834485897056
C         2.58797098453050   -0.64868026661767   -3.19782487266589
C         3.98076520663917   -0.58233867303642   -3.34137482181644
C         4.73361338983720   -0.15123285019455   -2.24100890059412
C         4.12118132396904    0.25737403169793   -1.04441296025274
C         4.78912079573788   -1.12172117780370   -4.50338820418354
C         5.65100661159932   -2.36703074432905   -4.16444409898102
C         4.71842934059956   -3.40189083911876   -3.51327817656504
C         5.13523018142109   -4.86136536389613   -3.66836710662574
C         5.30274834174797   -5.25359390485249   -5.12351390574387
C         5.32662110670992   -4.03231355598608   -6.02003164185171
C         6.28997264957125   -3.04486710965958   -5.38665649019767
H         0.20307890519521    0.54353982057800   -0.06195261305910
H         0.96930415871836    2.10959673152997   -0.62843766930555
H         0.71547499743023    1.77267509127519    1.14662121325451
H         0.93934763962171   -0.17322627055488   -1.78449983585102
H         2.04272701440421   -0.87393551595160   -4.11267032035164
H         5.81176028086485   -0.05412433681668   -2.31991214285614
H         4.63791525023886    0.82794397690579   -0.27843085800413
H         5.40224186762461   -0.27717210511359   -4.84983408073479
H         3.98164857536158   -1.42078152666679   -5.18545433299965
H         6.47023948575450   -2.07174334809428   -3.48742262617334
H         3.77773029223908   -3.39865057732536   -4.07468502975865
H         4.51830552354240   -3.05316421883830   -2.48937585225509
H         4.43519519560203   -5.54457022832302   -3.17061665931630
H         6.02992877725336   -5.13442258424393   -3.09372911662565
H         4.44919500114620   -5.82512728505785   -5.51016320003099
H         6.19644262703152   -5.88422281915391   -5.19145109414230
H         4.31263616247163   -3.62657674608943   -6.10419202529775
H         5.70757620205525   -4.27609794986845   -7.02025353865829
H         6.73590610628472   -2.26683606460129   -6.01443540534543
H         7.22193323532725   -3.51056299340306   -5.03304260294857
