35
 energy: -44.217150355973 gnorm: 0.093352899536 xtb: 6.4.1 (025e99ea0bd20707e8cccc6e19fe66a0758c6dd1)
C         0.69908927954893    1.00123269473016    0.04914558166864
O         1.90781969346529    0.25380637996960    0.08076937304840
C         2.75170237048889    0.17940480048130   -0.99300597914693
C         2.15380110526623    0.16168957699039   -2.25390625751137
C         2.89856407128282   -0.11162279178431   -3.40547967547566
C         4.25341979685768   -0.45860222372970   -3.31137983078455
C         4.90205887806450   -0.30058773419614   -2.07941532957251
C         4.13148822871705   -0.00106195586552   -0.94346654584964
C         4.94877066916710   -1.04649243378643   -4.52196630253664
C         5.74250271674172   -2.35398919911439   -4.25934904361382
C         4.94881646501529   -3.27677067534548   -3.31956751595518
C         5.47381325629478   -4.69944713089849   -3.48753024994619
C         5.00669225243860   -5.19880825350397   -4.84096817175677
C         4.84982513295773   -4.05992925853216   -5.82797728679883
C         5.99717760572100   -3.09747904266054   -5.57991953394139
H        -0.18271413111983    0.43554653687822   -0.26906546325370
H         0.71435433501372    1.90725013166570   -0.56476905463760
H         0.71983912408601    1.30974008119271    1.09957330794737
H         1.13897493218014    0.50121768356864   -2.44183667403354
H         2.38848025759765   -0.14948570410219   -4.36639279053800
H         5.90113150870031   -0.71133938423752   -1.97361617556756
H         4.65360165249389    0.06494911576873    0.00644539492929
H         5.58623922051745   -0.26900839625075   -4.96734001524937
H         4.22871294637850   -1.20947833081483   -5.33536359016317
H         6.71706265514768   -2.10190827606195   -3.80836860323792
H         3.90212145636332   -3.19929779422623   -3.63346298346271
H         4.99410568675178   -2.97978415016510   -2.26136920895072
H         5.37232188741777   -5.49736186864811   -2.74080074793910
H         6.54731247267689   -4.47291873054075   -3.52675983955218
H         4.06627804433360   -5.74803023938182   -4.70430173622030
H         5.70071944744852   -5.96023040392828   -5.21454591004511
H         3.88620770602456   -3.54509364011667   -5.74887901240794
H         4.91908736606775   -4.40928690680734   -6.86631896244022
H         6.22436750945518   -2.33163551247169   -6.32836041806007
H         6.86393625604087   -3.76728502559034   -5.47718026093547
