35
 energy: -44.219223102933 gnorm: 0.093319381889 xtb: 6.4.1 (025e99ea0bd20707e8cccc6e19fe66a0758c6dd1)
C         1.48969903729924    1.36244833618817    0.81296558613730
O         2.70700744194699    1.52462236187104    0.09704993927195
C         2.96659354438828    0.68334229544836   -0.94962574195469
C         2.20351959829120   -0.37268532168142   -1.44981878005083
C         2.56494911808553   -1.01829912136200   -2.63642923693811
C         3.70461908120625   -0.66502370811326   -3.37211422226048
C         4.41484241904454    0.47072922734455   -2.96091372405924
C         4.06494897610827    1.04277172098769   -1.72632212169410
C         4.11320604819171   -1.55734285454819   -4.52600788260802
C         4.60698805631007   -2.88775569110579   -3.89775060465790
C         3.91388656508148   -4.05885872968914   -4.61383777788154
C         4.75370008288115   -5.32326648113578   -4.76820001690696
C         6.06433645325070   -5.06099052348361   -5.48430154382753
C         6.53746788408768   -3.62298297734622   -5.42010966053782
C         6.12341077416700   -3.06847065005079   -4.06906060393450
H         1.24480274828054    0.30007103298674    0.91404293217826
H         0.72874323683433    1.94828576454401    0.28786313910422
H         1.79180995572507    1.74874488035284    1.79200069528597
H         1.31129026045857   -0.65723003002845   -0.89897356822415
H         1.88726029642147   -1.76836126468811   -3.04030762590248
H         5.29441157242696    0.82957988355914   -3.48592877788480
H         4.62432615035554    1.92027436362714   -1.41587263979048
H         4.83267152843366   -1.16548010152641   -5.25950520847531
H         3.12972327290536   -1.70775426639820   -4.99162653143156
H         4.45870901157702   -2.82461757006630   -2.80654845567562
H         3.65021666920640   -3.61747517399364   -5.58118549032017
H         3.01015988197719   -4.32284756083392   -4.04495839878609
H         4.25677642745390   -6.17354963977494   -5.25261596118261
H         4.93311998553298   -5.71799543019833   -3.75961080477490
H         5.88588693858991   -5.28079316035927   -6.54474671383548
H         6.86158311399170   -5.68670373968351   -5.06731413621626
H         6.15586670818776   -2.94521126300575   -6.19139225644820
H         7.61755738222303   -3.62659759457829   -5.61605625823397
H         6.73428587024895   -2.16386904727897   -3.98645988174856
H         6.44628599104536   -3.86103866802403   -3.37764647092758
