35
 energy: -44.225949937449 gnorm: 0.090770889953 xtb: 6.4.1 (025e99ea0bd20707e8cccc6e19fe66a0758c6dd1)
C         0.51093476286169    0.96026761446274   -0.33232040618696
O         1.90616898502548    0.81451978730332   -0.10263712647218
C         2.74162679711021    0.42158286488370   -1.11173468614667
C         2.32189016550943    0.17652708925253   -2.41995411483055
C         3.17492041113455   -0.39114644315597   -3.37157326465915
C         4.53488730130305   -0.56259913120609   -3.07835396404505
C         4.99688588056086   -0.27756884658294   -1.78655180788161
C         4.07474395302863    0.14900939614916   -0.81621180795136
C         5.55476196254202   -1.06639583609200   -4.07869984636848
C         5.80448335746228   -2.59741277052441   -4.03230439495494
C         4.67934856746731   -3.37575417098050   -3.33022947235092
C         4.85571611341277   -4.85918025573252   -3.64036322461250
C         4.65732184458769   -5.12517019533727   -5.11997359060221
C         4.97853535500970   -3.90161900189234   -5.95399038144078
C         6.20156952806240   -3.20332744587166   -5.38756556356898
H        -0.05310230510022    0.02277950962765   -0.28972237674627
H         0.34499756143512    1.37340406430823   -1.33220785971613
H         0.28682053237009    1.72147795399056    0.42222409328483
H         1.29757043230921    0.39962427227013   -2.70537671795122
H         2.75405499783961   -0.51847168223592   -4.36738132339079
H         6.05154446820707   -0.46514468286291   -1.61171742643230
H         4.38852895488271    0.20896733645018    0.22168828519115
H         6.51224286424644   -0.52888203789418   -4.01941611122443
H         5.18350313025284   -0.75453019626885   -5.06438203467652
H         6.70897348891463   -2.63135118705910   -3.40187516902806
H         3.65921242014015   -3.09353330382269   -3.61267676151268
H         4.74585858567576   -3.14574636740617   -2.25658679741194
H         4.08754704575097   -5.41141202563959   -3.08400926164653
H         5.82340560580920   -5.24626791926352   -3.29540695317657
H         3.66950609450289   -5.46315356405625   -5.45863075115938
H         5.33281277683149   -5.95711647177280   -5.34926632522928
H         4.10867189945343   -3.28543161570391   -5.70195572073057
H         4.95447291630291   -4.09237527527624   -7.03474682952015
H         6.47953784226971   -2.40467789686203   -6.08268270009231
H         7.02198564064636   -3.93235180202669   -5.31070948054558
