35
 energy: -44.217769204784 gnorm: 0.109489743505 xtb: 6.4.1 (025e99ea0bd20707e8cccc6e19fe66a0758c6dd1)
C         1.02918917677446    0.41432583116070    0.44604271642133
O         2.39765313723278    0.70013867645484    0.18856885931431
C         2.85327799206520    0.40909916424792   -1.06776273284550
C         2.09893765630228    0.07816565043110   -2.19431628424544
C         2.82840211472194   -0.21256442852490   -3.35140334216567
C         4.21885984097035   -0.35137726259664   -3.46204611314658
C         4.89742492893122   -0.06196548367218   -2.27073255643680
C         4.24487939071300    0.39279965802826   -1.11261018461647
C         4.90840057534880   -0.91212698800482   -4.68872481425801
C         5.40042196019598   -2.32941102855797   -4.29155094509347
C         4.38271198029140   -3.24852726610694   -3.59574596616431
C         4.96648790323257   -4.64352162940946   -3.39316807517551
C         5.04154172235725   -5.31972734216469   -4.74833246634194
C         5.36201911361438   -4.33895398358368   -5.85793487652190
C         6.03897080905223   -3.02760261785302   -5.50247073307462
H         0.78532872420959    0.40566298997715    1.51341959008168
H         0.60767319930768   -0.46015724330489   -0.05952175311008
H         0.50637427364306    1.29328093118920    0.05475218483917
H         1.02963357855421    0.26544807498609   -2.23885166146522
H         2.35204258080074   -0.58267045201331   -4.25753591215744
H         5.95920203496541   -0.28026051046713   -2.21565852747436
H         4.86245282479016    0.58385185064819   -0.24003085243998
H         5.73722809557038   -0.23264304097408   -4.93479762799959
H         4.27351267964691   -0.86520558239800   -5.58392222516587
H         6.21027555216737   -2.19299995613795   -3.55519206392959
H         3.54136554712594   -3.32223814630010   -4.29346061872040
H         4.02164183157946   -2.80453745452063   -2.65631147679743
H         4.35434288824945   -5.22932090655918   -2.69553560547644
H         5.98005611903842   -4.64755974690451   -2.97136503153885
H         4.12673356108776   -5.88360600339976   -4.97164451123298
H         5.91399047899429   -5.97931856169512   -4.67926471211571
H         4.46945222929752   -3.94032853307477   -6.35219483200227
H         5.94537307032890   -4.73634964338342   -6.69863476849509
H         6.06299143090046   -2.35402598297987   -6.36503252596399
H         7.10310366243615   -3.28925150880954   -5.40435296685150
