35
 energy: -44.223971117667 gnorm: 0.086221083963 xtb: 6.4.1 (025e99ea0bd20707e8cccc6e19fe66a0758c6dd1)
C         2.64772494792969    0.27000777141356    1.08093072919119
O         1.93053737839254    0.32062071379143   -0.14534644026383
C         2.55556527139455    0.13440346038093   -1.34756536721496
C         1.76203639274287    0.07867846999758   -2.49424575217687
C         2.30301973673288   -0.13296211197042   -3.76626703526133
C         3.69003039795133   -0.32645417726569   -3.82664744331956
C         4.48901000639677   -0.01344505348572   -2.71890440323877
C         3.94434152807657    0.17836458898570   -1.43811567472444
C         4.26543619940785   -1.01175533649913   -5.04890675792776
C         5.03660794145712   -2.28185890780724   -4.60095893756852
C         4.08929378991459   -3.19074891833803   -3.80022946257879
C         4.94119369506160   -4.21720388791163   -3.05962284839041
C         6.18218816317592   -4.69028713629521   -3.79138971096709
C         5.88991460926329   -4.60320570232303   -5.27558398538953
C         5.63177288319549   -3.17019832246661   -5.70466842933568
H         3.49359947103406   -0.42169033949920    1.01102815555484
H         2.00217791553023   -0.11957072695831    1.87433442424281
H         3.00314108724267    1.27693194712404    1.32339482979510
H         0.69034727159710    0.19857014535825   -2.36166464442799
H         1.71392759071842   -0.27598316553751   -4.67041775930158
H         5.55830642137946   -0.12658644869116   -2.86675805560865
H         4.53357193141912    0.49177229918174   -0.58145020808739
H         4.95701800039657   -0.32185472208393   -5.55383951091767
H         3.49488886999870   -1.26032798975645   -5.79128881610600
H         5.77368872024936   -1.96795534071418   -3.84275599605342
H         3.34501740947428   -3.51842634034763   -4.53424787553148
H         3.59646097995144   -2.52510979564321   -3.07629842335624
H         4.27043135734526   -5.04877623441688   -2.80834870299132
H         5.27933038672863   -3.59183887005576   -2.22306034816850
H         6.35945923318596   -5.74630950838966   -3.55036459970119
H         7.11442797571702   -4.15517995618267   -3.57787858126462
H         4.95824427323799   -5.14456332915184   -5.47254362928842
H         6.70267216492953   -5.06766333311503   -5.84891261961512
H         4.86503769588090   -3.23348573005653   -6.48338993207797
H         6.53185159144484   -2.70080293720645   -6.12892337739537
