35
 energy: -44.216324349292 gnorm: 0.096969385919 xtb: 6.4.1 (025e99ea0bd20707e8cccc6e19fe66a0758c6dd1)
C         1.18364133168954    1.44589722245225    0.67644259044195
O         2.52720443732314    1.37573245801989    0.21754122196582
C         2.91208728915276    0.59522670035366   -0.83760949777225
C         2.04528775227688   -0.28785120391068   -1.48297857133270
C         2.45087728030855   -0.86627834037668   -2.68979755173295
C         3.78814388281042   -0.77315897636372   -3.09959063141445
C         4.63066814750040    0.13059430543045   -2.43866653731488
C         4.19255230625623    0.85633798389509   -1.31829825216905
C         4.36941438250007   -1.31178100337984   -4.39058183029248
C         4.95091844112626   -2.73221101034122   -4.16089114814739
C         3.99157198391763   -3.86863541050621   -4.55184740794829
C         4.80265778084493   -5.14011049474275   -4.32090942912791
C         5.78634525606916   -5.28165535436432   -5.46619619441611
C         6.34125034763232   -3.95128618637647   -5.93314144426688
C         6.35004693535908   -3.05245358600817   -4.70991483570810
H         0.94215523406924    0.44779305355919    1.05632268998423
H         0.59752409877614    1.85044484733498   -0.15470096581743
H         1.14177036141958    2.24517278721737    1.42371172747233
H         0.97933189656501   -0.38868217231895   -1.29847771414884
H         1.68111525579658   -1.22447989587607   -3.37106929342214
H         5.59126489796526    0.26541498044211   -2.92563037196034
H         4.78967722910130    1.69212883272756   -0.96589497102004
H         5.19815454017060   -0.65392725448613   -4.68995372141512
H         3.58452411271599   -1.32870890503840   -5.15890688333347
H         5.02325026070195   -2.94264088947081   -3.08052889457293
H         3.70089659984096   -3.80798898649877   -5.60632959569098
H         3.07515776442177   -3.76550373281708   -3.95219367213542
H         4.10788169725343   -5.98897468404253   -4.28500456847282
H         5.28631073225597   -5.13198869717527   -3.33537987464255
H         5.42408039466907   -5.93903157733888   -6.26702205449068
H         6.68740239566273   -5.78170352974742   -5.09330798247742
H         5.79787118787849   -3.48638170929425   -6.76288460405639
H         7.32120656251095   -4.06760345960825   -6.41392992802349
H         6.86333641736041   -2.12798836335796   -4.99309901574815
H         6.96114067655585   -3.55900706880562   -3.94805265844758
