35
 energy: -44.225623563375 gnorm: 0.096401047927 xtb: 6.4.1 (025e99ea0bd20707e8cccc6e19fe66a0758c6dd1)
C         0.80646088355147    0.96836716384631    0.22854619007305
O         2.20957644616522    0.74691648426625    0.17467880469953
C         2.74717873897718    0.46462847117730   -1.05086774104373
C         2.04051882317193    0.18120230504083   -2.22047050495446
C         2.72391205348129   -0.34781430758377   -3.31983758634072
C         4.11497774702665   -0.51772668250023   -3.28902252208128
C         4.81570266042506   -0.32711424064997   -2.09065310486187
C         4.12628584486316    0.27437321699394   -1.02444873489613
C         4.72091559353916   -1.14318170753879   -4.52849526621217
C         5.62931018944489   -2.35467921716810   -4.18846699512407
C         4.78761433324526   -3.36936537361422   -3.39687813148411
C         5.39100174253225   -4.76083732929166   -3.56292281790939
C         5.18955486841100   -5.28135671632209   -4.97282937318163
C         5.27462538822760   -4.13458255126670   -5.95949632355257
C         6.14334337203128   -2.97972740694961   -5.49484653954898
H         0.14215920090887    0.13894233053905   -0.03526069821003
H         0.44681666258348    1.76244349214542   -0.43333795440426
H         0.51193045477478    1.33934751555822    1.21578029273684
H         0.99294537255566    0.36587433330509   -2.44172926227543
H         2.17774808795466   -0.74414491214722   -4.17400389884010
H         5.85338433520695   -0.61364133289006   -1.95217760712358
H         4.71883901144550    0.40012101633895   -0.12313811926391
H         5.24369365983587   -0.41369054325996   -5.16390935078974
H         3.88896163200474   -1.53115606446374   -5.13181208447387
H         6.42910991437853   -2.02190886767901   -3.50562036651283
H         3.74053929472588   -3.49157455787416   -3.69487415578721
H         4.69951333026542   -3.16750639156696   -2.31913654311848
H         4.99965768652394   -5.54786564184251   -2.90564841477786
H         6.47536828300521   -4.69658068081827   -3.40394189948232
H         4.26552706589203   -5.80656728554278   -5.24674152079426
H         5.96262061080727   -6.03648430475955   -5.15489927146022
H         4.26590863238162   -3.78851057454985   -6.20968722956254
H         5.63557139409394   -4.52437152613700   -6.92011278906528
H         6.24639784718792   -2.21106273397504   -6.26739408975290
H         7.17808562311925   -3.32124349623626   -5.34272420477846
