35
 energy: -44.224252530065 gnorm: 0.085687369165 xtb: 6.4.1 (025e99ea0bd20707e8cccc6e19fe66a0758c6dd1)
C         2.13091330740084    1.13401662294177    1.14622130713542
O         1.80277862135335    1.29426843207269   -0.22757720574769
C         2.43032939127533    0.57155374571600   -1.20457800838256
C         1.67312468109362    0.36082680038305   -2.35779282568611
C         2.27323707817540   -0.36683456689848   -3.39020111271294
C         3.63860170625942   -0.68007465093168   -3.44063495418528
C         4.33077179765626   -0.56772883036086   -2.22749164006945
C         3.73931959319708    0.10088077349428   -1.14258615826299
C         4.28093813614322   -1.17799184950295   -4.71896576432704
C         5.04167047996014   -2.51905772765683   -4.54189302848776
C         4.40667356245189   -3.70068279716589   -3.79009922621146
C         5.44818337318521   -4.74059664475176   -3.38800732092974
C         6.50518930184301   -4.96252008057570   -4.45235980914256
C         6.02026807065378   -4.48819061064429   -5.80724083627360
C         5.51102451239227   -3.06125881243306   -5.90103526583105
H         2.17091831251511    0.07786927790398    1.43220861096806
H         1.36094763636005    1.73121587419343    1.64471676457145
H         3.11976172458593    1.57507491264367    1.30947620071060
H         0.72344100116413    0.86245591225125   -2.52192221415295
H         1.59389214259810   -0.53565322887447   -4.22384600885122
H         5.40664285481521   -0.70320608311154   -2.18054636778630
H         4.35646713710969    0.44715357851039   -0.31886495452636
H         4.97253320415220   -0.37723680025178   -5.01845354546567
H         3.51579976722169   -1.14962546151958   -5.50663402005472
H         5.90020804325743   -2.30186165059799   -3.88429563585461
H         3.67423010522213   -4.20271095091586   -4.43165761039951
H         4.00334190201381   -3.34004383449163   -2.83234201722381
H         4.84259897707178   -5.64123237803480   -3.22461763526235
H         5.93886988929074   -4.49662721768382   -2.43671330649480
H         6.78399884976825   -6.02373274280226   -4.48054323965778
H         7.41474291978565   -4.39727347435913   -4.21953744546768
H         5.20556070620021   -5.13884522337044   -6.14305518924964
H         6.74651486551075   -4.68853559311970   -6.60563230442213
H         4.67434746535278   -3.01147859312765   -6.60515795729552
H         6.34346491633677   -2.47301391036758   -6.31513292814837
