35
 energy: -44.217799717827 gnorm: 0.097943933370 xtb: 6.4.1 (025e99ea0bd20707e8cccc6e19fe66a0758c6dd1)
C         1.47292200801510    1.80953145498299    0.40997159018822
O         2.83375591346113    1.41078608282149    0.31093320681621
C         3.01304267567820    0.58205827979920   -0.76225530115495
C         1.97301468300076    0.05078089647692   -1.52629415497993
C         2.36193360019289   -0.62693243806806   -2.68600944936480
C         3.70788112110336   -0.85834085605030   -3.00185584776198
C         4.74727355320826   -0.37607544592597   -2.19530689721521
C         4.35370406138803    0.35373386397625   -1.06113059608691
C         4.02758949172261   -1.43104514533368   -4.36730218455789
C         5.02134213298348   -2.61111221788902   -4.19870926003067
C         4.25513444333754   -3.93839349521682   -4.07260206246662
C         4.32545366851065   -4.96790220289825   -5.19643854129113
C         5.75857239128827   -5.38767080379867   -5.45973080530367
C         6.66578606119780   -4.19556234225045   -5.23239752416928
C         6.01980181060846   -2.82666763063278   -5.34681944526618
H         1.42785421636587    2.29341183954011    1.39112653631233
H         0.89077852331512    0.88266750763653    0.41486976167545
H         1.12127286271248    2.47350036438090   -0.38657968633934
H         0.92096078401509    0.23393673116624   -1.32602968114847
H         1.58434216973542   -0.82159933791354   -3.42250756398931
H         5.77489788646090   -0.69923644986295   -2.32801593485031
H         5.08040004564596    0.87681318647074   -0.44664418083278
H         4.46885939919426   -0.58090177222258   -4.90743406256108
H         3.07651507240526   -1.63569467452112   -4.87743813838814
H         5.58319852840401   -2.48305270741855   -3.25817038509807
H         3.18256696281724   -3.75589469805315   -3.94455503840065
H         4.59978045773167   -4.43876559937809   -3.15560552490151
H         3.80515595972928   -4.63498261089593   -6.10364756627833
H         3.67077239865509   -5.75208668879061   -4.79431695547187
H         5.76116473816934   -5.82209589733943   -6.46768393088854
H         5.88462781363419   -6.20689046425130   -4.74280197859200
H         7.44686734965949   -4.22393961363928   -5.99984625031430
H         7.23983489287875   -4.22717377016788   -4.29726645653756
H         5.48308234942813   -2.70035788958003   -6.29247973830711
H         6.80124080781092   -2.05232513427569   -5.33223314463389
