35
 energy: -44.217416189613 gnorm: 0.111367842237 xtb: 6.4.1 (025e99ea0bd20707e8cccc6e19fe66a0758c6dd1)
C         0.79619104504760    1.20431267899361    0.21786991289915
O         2.18020926223988    1.37582751035530   -0.05736018709663
C         2.79355725561661    0.67929340190260   -1.06200516623122
C         2.10918065766393   -0.19096940350618   -1.91167602149667
C         2.73804530114641   -0.92973038961815   -2.91877795500877
C         4.10865579132530   -0.69105634159826   -3.09008208648339
C         4.88474876952634    0.11363489502007   -2.24533983951830
C         4.17507552705198    0.75700365972380   -1.21756799206714
C         4.87455833900197   -1.38415805116784   -4.19807606113074
C         5.44647057941938   -2.75686014114126   -3.75408108010174
C         4.32157514533310   -3.80087892296416   -3.65770741985721
C         4.68787412592631   -5.15270834290943   -4.26287159740594
C         5.11102163507387   -4.98910966326867   -5.70977844544282
C         5.94349971730802   -3.76839365363314   -6.04544541836343
C         6.51930757165030   -3.21033201501284   -4.75654151019040
H         0.67380806013276    0.24127161889094    0.72424001044182
H         0.14849424279723    1.20272455213698   -0.66444416286768
H         0.59383119638256    2.08202317063078    0.84050990114566
H         1.03798394885396   -0.16749628220375   -1.73152066015888
H         2.15980466551989   -1.64140772958811   -3.50540068383342
H         5.90476453802969    0.40362122849073   -2.47671020727259
H         4.68832895539357    1.54338841484016   -0.67216674449489
H         5.72081817335821   -0.78675937795936   -4.56708072668730
H         4.16488778258258   -1.47137123482674   -5.03199706389471
H         6.02912366336418   -2.63911003298724   -2.82491719909683
H         3.54756440564618   -3.36602104406401   -4.29950867680191
H         3.82615673324227   -3.84144231971882   -2.67640676593788
H         3.77883541980655   -5.75664142700085   -4.14673875441903
H         5.42028924262853   -5.58643908236216   -3.56954599888565
H         4.11823420191705   -4.92026870383663   -6.17274218249846
H         5.67854106747062   -5.88903299517372   -5.97256629775855
H         5.29683828104633   -3.05258708915162   -6.56440663576608
H         6.87385308151036   -4.07350270917694   -6.54178455720344
H         7.19533373695214   -2.37826445972240   -4.97778239402592
H         7.13967780708059   -3.94927544592135   -4.22779833261027
