35
 energy: -44.221376608738 gnorm: 0.102824061244 xtb: 6.4.1 (025e99ea0bd20707e8cccc6e19fe66a0758c6dd1)
C         0.89530584918334    1.62124195811715    0.31763059680151
O         2.26842201481855    1.25998538479196    0.24892059392765
C         2.76333089782297    0.62297363916936   -0.85559211327440
C         1.95592626796568    0.00984014743841   -1.81467206333669
C         2.56522350303400   -0.65577273509511   -2.88294600654373
C         3.95256317542591   -0.73615500700213   -3.06655113140024
C         4.74023769993553   -0.22523806777893   -2.02637302721979
C         4.14464867332864    0.50017075996128   -0.98094000615612
C         4.69261388211688   -1.24697105714831   -4.28558322006468
C         5.34347346725426   -2.65552449729027   -4.25583152875990
C         4.31856182034386   -3.77375711553498   -4.00331469062557
C         4.98791351785497   -5.14407030317316   -4.04860790026688
C         5.88639691303148   -5.39011367383115   -5.24508105750798
C         5.72142377465386   -4.20284910758601   -6.17191780807982
C         6.20103796625983   -2.92816193560256   -5.50154209275412
H         0.83264491502469    2.31973132140023    1.15847694106594
H         0.26492596726332    0.74373544138936    0.49254577163136
H         0.56588581818252    2.20253379890805   -0.54988770741396
H         0.88748317829659    0.16605380724006   -1.69427277378366
H         1.89251744425146   -1.02240234495284   -3.65626508248725
H         5.81569208781966   -0.36699588797133   -2.06323868395149
H         4.75886572325393    0.93093742166837   -0.19578391448960
H         5.50868383694865   -0.51836757106095   -4.39681324488913
H         3.95641683718669   -1.20507301666953   -5.09978291174433
H         5.84956892348521   -2.76605131106579   -3.28200072597841
H         3.55368020323612   -3.76353171115278   -4.78750497494716
H         3.86863856337112   -3.62489038947222   -3.01061960901349
H         4.31677783338275   -6.00853803616382   -3.96586851179576
H         5.66090589651991   -5.24821083550747   -3.18750938665630
H         5.68654897828873   -6.32918633651265   -5.77696894310592
H         6.90922166715085   -5.44313229321560   -4.85518836378407
H         4.70344564788483   -4.05101016920181   -6.54679947677760
H         6.33729345032414   -4.35365801412036   -7.06799965367014
H         6.13145751146655   -2.08254802220519   -6.19320023693467
H         7.16790450686430   -2.90910479244663   -4.97687849763599
