35
 energy: -44.230426900043 gnorm: 0.078697255361 xtb: 6.4.1 (025e99ea0bd20707e8cccc6e19fe66a0758c6dd1)
C         0.80513456350715    1.16297320274728    0.20724294368799
O         2.11896344097747    0.62446831250752    0.13985198810276
C         2.63240395925344    0.25508334834024   -1.07283125726970
C         2.03129351659133    0.23459850243561   -2.33216276313443
C         2.76388023828999   -0.21089294166537   -3.43685588816522
C         4.10704525401800   -0.60235909391268   -3.34999104377527
C         4.67989290602594   -0.54563439643060   -2.07246780988749
C         3.99508698948675   -0.01133013134597   -0.96818783890898
C         4.83218828684323   -1.08796375780302   -4.58813602749974
C         5.69697297917467   -2.33872304948987   -4.27785421792597
C         4.93231949520051   -3.30209491786485   -3.35488481108774
C         5.33498971785642   -4.77023801676082   -3.45614652985178
C         5.25280618068323   -5.28736468305029   -4.87923600192746
C         5.23948978664775   -4.16137203592541   -5.89304213784053
C         6.16642106940535   -2.99987092543348   -5.58324490171847
H         0.04246335704045    0.40901415106672   -0.01347120289364
H         0.75523097373528    2.07961773829968   -0.38879751490181
H         0.72234677011358    1.41389171477064    1.26987733644578
H         0.96495935135269    0.43101531924420   -2.40159765365426
H         2.24172775660916   -0.33927546031344   -4.38334826125232
H         5.71208592074025   -0.85686524121912   -1.94689141688241
H         4.46984475928821    0.19636817345843   -0.01385086714968
H         5.51076200787416   -0.35995580582929   -5.05584046442824
H         4.15426066543380   -1.39823961323290   -5.39486132123278
H         6.53981654731362   -1.92791733938178   -3.69686488096058
H         3.87231648091961   -3.14854306544878   -3.58492456721032
H         5.01952774490772   -2.94372404127823   -2.31854471130761
H         4.71012840964021   -5.37821041044614   -2.78944473036968
H         6.39074670203997   -4.91656276173004   -3.19304787583045
H         4.32701654137060   -5.87212452444797   -4.95454110075237
H         6.11919993819697   -5.92367621286942   -5.09246652988961
H         4.24369714557415   -3.72615806219302   -5.75572276736786
H         5.31013506532261   -4.54748031161907   -6.91819144455462
H         6.05322341427747   -2.23255708584706   -6.35571566734080
H         7.20227030001420   -3.36539385064283   -5.52099274300814
