35
 energy: -44.222895217005 gnorm: 0.089859214002 xtb: 6.4.1 (025e99ea0bd20707e8cccc6e19fe66a0758c6dd1)
C         2.58515952219255    2.15179692465956    0.72885295759259
O         1.82562167249863    1.13476216044428    0.08899522188955
C         2.49360314409911    0.50222344674105   -0.92311276970374
C         1.69869111349360   -0.04869300796235   -1.92923162767210
C         2.17902588660443   -0.68330098001913   -3.07903337471119
C         3.55796696578852   -0.92893468117302   -3.13443272774063
C         4.37880789444750   -0.40310139356580   -2.12787559926750
C         3.86627616150009    0.28847307300011   -1.01751061300392
C         4.23145838147969   -1.39960501708848   -4.40703873682168
C         5.01035191418313   -2.74007671854000   -4.33642255058230
C         3.97749384983850   -3.87918675722990   -4.35331549277807
C         4.67977167149032   -5.23341933531077   -4.37979925917182
C         6.17977403345866   -5.07872076831865   -4.53923274390927
C         6.49045803037356   -4.24951315668025   -5.76875697710383
C         5.95421661079760   -2.84724215379354   -5.54438689659967
H         3.37975555410773    1.68481401791216    1.31993710279104
H         1.94490633455599    2.68324916354952    1.43992691650146
H         3.04523120861096    2.76758156014445   -0.05098618976503
H         0.62423090945207   -0.05329786602954   -1.76803798787299
H         1.49006787999326   -1.02827815847657   -3.84799416791049
H         5.44887392361314   -0.41879254694703   -2.30889759513203
H         4.55573940699357    0.58548746677283   -0.23283523618674
H         4.93692189055923   -0.65804530846049   -4.80905335369472
H         3.40697012560417   -1.62199435898323   -5.09799804693969
H         5.65697330242676   -2.74553935478776   -3.44280845152945
H         3.33716314205118   -3.70040476956853   -5.22401431402599
H         3.28089043654192   -3.70219130410676   -3.52057780312999
H         4.29962434129149   -5.82096292047882   -5.22528960132071
H         4.39036032983084   -5.69599613490257   -3.42716164569250
H         6.61579235302410   -6.04496677138222   -4.82376406592530
H         6.60858139051736   -4.63718176945493   -3.63249941641808
H         6.13155326879308   -4.69438145070864   -6.70318213096969
H         7.56540463884457   -4.05821945329645   -5.88232618948195
H         5.54520091786861   -2.41572259041715   -6.46351275718596
H         6.83463674902836   -2.21832579449354   -5.34491117812543
