35
 energy: -44.221031922343 gnorm: 0.110073855438 xtb: 6.4.1 (025e99ea0bd20707e8cccc6e19fe66a0758c6dd1)
C         0.76621244549985    1.08390731302265    0.18406193393700
O         2.16683928288291    1.28577253876667    0.04926475968982
C         2.82041881145588    0.58724577391090   -0.92826336865158
C         2.15936446688099   -0.40162234038175   -1.65820600642180
C         2.80911676649123   -0.96693015564676   -2.75990554040611
C         4.11601345557498   -0.60167137694721   -3.11131779177853
C         4.78215437455120    0.32322270636865   -2.29629327887627
C         4.14975668918103    0.91040107457464   -1.18761425366282
C         4.90161368203321   -1.19199182385231   -4.26414099873573
C         5.59864163952319   -2.56943816641843   -4.10501921208323
C         4.58853670507845   -3.60405573774391   -3.58165765180456
C         4.98779410053197   -5.04622001252077   -3.87931036342687
C         5.09321847717350   -5.31745777226482   -5.36748829124444
C         5.38935869292227   -4.03696761405563   -6.12146811467579
C         6.29036661443881   -3.06149412392398   -5.38601114759365
H         0.48968369059322    1.85593806231919    0.90955261589911
H         0.73808790165516    0.08871863904404    0.63881496465818
H         0.29562868524698    1.18588285723997   -0.79937982015185
H         1.09386037496666   -0.58880064983448   -1.55753507740952
H         2.22168251726039   -1.64350450893867   -3.37808128057725
H         5.79515928598282    0.58188242725370   -2.58779403967266
H         4.74740641477876    1.67910208139097   -0.70677525222561
H         5.66891953919761   -0.52651128410828   -4.68554660194689
H         4.32449849767576   -1.26421268356626   -5.19601270221534
H         6.31041324867054   -2.40441465927617   -3.27867567877888
H         3.62136673912735   -3.44975882283130   -4.07245044635716
H         4.46725068759538   -3.61114697539109   -2.48837124021256
H         4.22653097867815   -5.72634902399451   -3.47622679617928
H         5.90752876551512   -5.22240910120190   -3.30633550127683
H         4.20110162759168   -5.83671782730496   -5.74058064857394
H         5.94806736892502   -5.97874254028851   -5.54896443814482
H         4.42743880224680   -3.62350178023063   -6.44337947244726
H         5.84478691892875   -4.24084508955958   -7.09923115479053
H         6.60476564834488   -2.15326433446333   -5.91000276490047
H         7.28820656708928   -3.48897828632576   -5.20701761772485
