35
 energy: -44.224039167031 gnorm: 0.094720765969 xtb: 6.4.1 (025e99ea0bd20707e8cccc6e19fe66a0758c6dd1)
C         0.67791189422873    1.36692625725527   -0.02298465254823
O         2.07309575107838    1.09715073260957    0.01387387559221
C         2.73973109820307    0.50447112775273   -1.02294592021200
C         2.01952097175772   -0.09687464061140   -2.05607220066298
C         2.75085626705767   -0.74388432008301   -3.05708170164608
C         4.14828982611221   -0.78384758132673   -3.15938478455118
C         4.79756742210283   -0.13377989246591   -2.10142052545385
C         4.13083443012546    0.54513114269458   -1.06777581442931
C         4.94208490926196   -1.39290935477964   -4.29674157057009
C         5.67853581288467   -2.66680771680214   -3.80343719032311
C         4.79410860441834   -3.82017640289570   -3.30125990836754
C         4.87871971798661   -5.09727592105574   -4.13174120564959
C         4.61250008110819   -4.68730167870954   -5.56715264338816
C         5.81798395523609   -3.89597865172782   -6.03240112148936
C         6.57644930287975   -3.13743695147848   -4.95834080315924
H         0.11406335602524    0.42942240159144   -0.06768031590260
H         0.39555624293215    2.11971897881847   -0.76566237921217
H         0.47241711201517    1.85402406660173    0.93592795502272
H         0.94204598661267    0.02605303547523   -2.12244823407415
H         2.13018886811981   -1.27190593236012   -3.77884223692280
H         5.85954273654662   -0.32087701495054   -1.97789075934654
H         4.78799092212293    0.99908429932759   -0.33200107768987
H         5.65225179710764   -0.72952380642080   -4.81131705263280
H         4.10757686558345   -1.61339848972877   -4.97618512763693
H         6.37533211495419   -2.47336380281163   -2.97052087520381
H         3.74812830845858   -3.49477916846996   -3.31328954508066
H         4.99362105463114   -4.01047775894776   -2.23635806193525
H         4.16821906688914   -5.85681297446584   -3.78121921630305
H         5.87726986406065   -5.51899393083972   -3.95765453439833
H         3.74794001103516   -4.01235489962561   -5.60819064420061
H         4.38287674793894   -5.50705905396539   -6.25727490433625
H         5.51680803390387   -3.21977815477552   -6.83981473814270
H         6.55592983361859   -4.56544680602808   -6.49310680796880
H         6.99969690659742   -2.24263278349314   -5.42576169433600
H         7.43200447517537   -3.76366189171040   -4.66451493487137
