35
 energy: -44.216996462684 gnorm: 0.103276389750 xtb: 6.4.1 (025e99ea0bd20707e8cccc6e19fe66a0758c6dd1)
C         0.81479333383725    1.52242188087937    0.11701481915849
O         2.19629696532675    1.19243769403525    0.17387894275884
C         2.77286597586971    0.53564224414476   -0.87819281379461
C         2.08535085753018    0.11379645248678   -2.01706871889759
C         2.73076952554853   -0.58905887658820   -3.03928296799809
C         4.12155638942703   -0.76275834401873   -3.01869361290397
C         4.80714878004603   -0.33596176271762   -1.87359732323157
C         4.14142675390750    0.28933744652547   -0.80603490090218
C         4.91369246354418   -1.13512325002623   -4.25502372683572
C         5.41300994541396   -2.60424160861789   -4.22503245241428
C         4.14885703512666   -3.47960738435244   -4.24249716544283
C         4.43887692042949   -4.97245521767710   -4.11947188742546
C         5.72558435207735   -5.36577611118940   -4.81878614407820
C         6.07735559246954   -4.42635799076678   -5.95438741148130
C         6.27386289900179   -3.01554881725181   -5.42973217911159
H         0.23656450903009    0.59278898130240    0.13346029876637
H         0.58820533273944    2.07117750489803   -0.80250513364039
H         0.63855185539137    2.16640790392300    0.98490116691436
H         1.03319993544576    0.34928927389276   -2.15119885975916
H         2.18336743157467   -0.85306737004111   -3.94240176609610
H         5.86623976137257   -0.55504983998883   -1.96515714757792
H         4.54683667413936    0.70663676033056    0.11091474883613
H         5.70234457013199   -0.37145891565150   -4.31866307680865
H         4.36000993315755   -0.82555324706576   -5.15183181192737
H         6.06780915449299   -2.78140649253339   -3.35523602664035
H         3.52556491156197   -3.35906394849200   -5.13529000846345
H         3.57238235448197   -3.28081912957619   -3.32696675094939
H         3.51287069500411   -5.42869077306337   -4.49221169641202
H         4.47093795472971   -5.29549256746878   -3.07072329796083
H         5.53234824824190   -6.40978413973288   -5.09700985070102
H         6.47987842192526   -5.43778870801778   -4.02704603099847
H         5.20125667161694   -4.31327698846278   -6.60210198136234
H         6.89626427895893   -4.70319214378376   -6.63096177697821
H         6.35809281584144   -2.32337981495768   -6.27359396402502
H         7.29404691931760   -2.94383436090049   -5.02408754227516
