35
 energy: -44.220408520180 gnorm: 0.087713635420 xtb: 6.4.1 (025e99ea0bd20707e8cccc6e19fe66a0758c6dd1)
C         2.71340428271784    0.97369321309997    1.01143024642616
O         2.07206582115066    0.16029317603627    0.03791048254872
C         2.54849708632631    0.15274471138117   -1.24412825721297
C         1.74440763828898   -0.47512638032905   -2.19643455997520
C         2.26612426511183   -0.80237720208181   -3.45190718134241
C         3.56820080916956   -0.45207835359985   -3.83501411006293
C         4.37150452478705    0.08744524532017   -2.82157679667634
C         3.83622259823848    0.54108704100157   -1.60438461047819
C         4.22587039951620   -1.05854347567416   -5.05743715798981
C         5.01986665529152   -2.23691734749314   -4.43331283702030
C         4.04069708778945   -3.29432826477341   -3.89687835173278
C         4.56965044119473   -4.66023110136073   -3.46984299188209
C         6.01742449504524   -4.82867778545057   -3.88809384197977
C         6.38672306709030   -4.25830962833664   -5.24239749347273
C         5.82739795423089   -2.88536189977806   -5.56863470355998
H         3.62143683226095    0.47287369903001    1.36284603636036
H         1.92545118807743    1.08410949525792    1.76304847955226
H         2.98820906828699    1.97028601024155    0.65047194907168
H         0.70211084308997   -0.72025210650361   -2.01204341331862
H         1.53991961453574   -1.24131137781442   -4.13376984973445
H         5.41526661016524    0.26682883051992   -3.05914516727583
H         4.47325232744927    1.07625839417449   -0.90647536189565
H         4.93073698928793   -0.34094379743091   -5.50175587112062
H         3.52919828929729   -1.43101959036042   -5.82070132394243
H         5.75367148580385   -1.91039869154867   -3.67726305921027
H         3.38280951903583   -3.49710177612443   -4.74903426769063
H         3.40751047983109   -2.85941482892359   -3.10950246197792
H         3.92880935465558   -5.36766418682103   -4.01153894746656
H         4.50225258437917   -4.94099798435570   -2.41065361830447
H         6.40019542268109   -5.85536154971385   -3.82399819725268
H         6.61976974672329   -4.33160681866051   -3.11926459123433
H         6.22929801857740   -4.98067312490674   -6.05065433966295
H         7.48373552841146   -4.21904236606136   -5.23758078449905
H         5.08800637102569   -2.88747100039565   -6.37584654895076
H         6.63308423963104   -2.24312209064311   -5.95446317492316
