35
 energy: -44.229561138978 gnorm: 0.094908370693 xtb: 6.4.1 (025e99ea0bd20707e8cccc6e19fe66a0758c6dd1)
C         0.87289379007076    1.03976199884667    0.18190251092024
O         2.24096706753949    0.65495749808197    0.15065532952995
C         2.72651736506134    0.27057502790046   -1.06883559342292
C         2.01474632010832   -0.12692018713720   -2.20155302742287
C         2.74451907572387   -0.50304489018318   -3.33356662839766
C         4.14544498424386   -0.52167692990732   -3.28948737869605
C         4.85716200117288   -0.12357778260864   -2.15000779619891
C         4.11505013701244    0.19285678227673   -0.99978451031230
C         4.86425294000914   -1.12207107742298   -4.48007098905999
C         5.65010727821851   -2.41182318289133   -4.12300145254026
C         4.62712473276324   -3.35616515644844   -3.47002534732992
C         5.20188719400896   -4.76662171860352   -3.56003540177376
C         5.07959259245195   -5.19486001524541   -5.00952281582076
C         5.30593938579291   -4.02954248558027   -5.95113942353299
C         6.23764021997807   -2.94627842447257   -5.43856426323384
H         0.21230534372374    0.16863232317978    0.24183871801183
H         0.67365128109570    1.70082465059698   -0.66738565932113
H         0.72408666867602    1.73405312269012    1.01546237430978
H         0.93530650092635   -0.01782531324703   -2.25966770629113
H         2.13412605803786   -0.89436221320876   -4.14551750348684
H         5.94184561207541   -0.08752055795599   -2.16476703330887
H         4.65800480162368    0.49177711363793   -0.10807858707359
H         5.67043942141366   -0.48570521168754   -4.87289049956386
H         4.11770208195096   -1.39420844396188   -5.23853374100279
H         6.38902631653849   -2.23304096134548   -3.32379509838125
H         3.65876662654249   -3.32493075074300   -3.98130789489229
H         4.50921557401790   -3.08436093098516   -2.41065965868933
H         4.63891325014034   -5.42771697417971   -2.88877779176805
H         6.24514190843782   -4.80160195056272   -3.21996095677675
H         4.08430381944392   -5.63832719727399   -5.14157774377016
H         5.79274031999572   -6.00849851116454   -5.18390883036351
H         4.40086019976480   -3.49459646906890   -6.25860523248773
H         5.75066388016980   -4.38109291711384   -6.89115744315789
H         6.16268399059248   -2.20486162797956   -6.24042336615039
H         7.25519321320543   -3.34294524760383   -5.30549545117748
