35
 energy: -44.213753488238 gnorm: 0.090659465678 xtb: 6.4.1 (025e99ea0bd20707e8cccc6e19fe66a0758c6dd1)
C         0.61533942193183    0.81255665255178    0.03036987632194
O         2.02925501484807    0.93022044469417   -0.05722750066199
C         2.69653842867437    0.31150656183549   -1.07830195519523
C         2.07637554574568   -0.09917275534836   -2.25915322374633
C         2.93069974201873   -0.47593656224143   -3.30014891329492
C         4.30838929821442   -0.66170328254210   -3.12029978315598
C         4.87817894722937   -0.16795191445923   -1.93920407889440
C         4.07065116382646    0.24082199207718   -0.86464500687940
C         5.16216618251884   -0.97893702360494   -4.33070263886046
C         5.84727515082212   -2.37113544085476   -4.36128701270275
C         5.23069952371462   -3.23807802109726   -3.25092766774044
C         5.43003855273171   -4.71087103690021   -3.59587126034735
C         4.84094662709096   -5.16291660872240   -4.91798444314105
C         4.67762761497859   -4.05638002664431   -5.94011131261865
C         5.85156852881199   -3.12425267736732   -5.70081634377762
H         0.28545995471763   -0.22959991366435    0.09302434381880
H         0.05135551269747    1.18784486371602   -0.82932350318568
H         0.26729005042493    1.35797534925939    0.91376437879970
H         1.01415036595093   -0.25221636744681   -2.42863664325150
H         2.56689519301674   -0.68755148005440   -4.30406049874938
H         5.94105852948621   -0.21235284033720   -1.72386241698049
H         4.36423844896957    0.69133312284805    0.07882666632916
H         5.88672151420603   -0.16721008141974   -4.48983859163143
H         4.51868402680045   -0.96691792606728   -5.22089864020788
H         6.92246442671835   -2.19203868850800   -4.19220837415116
H         4.19342976719256   -2.93446153801542   -3.07206646832267
H         5.74762629238626   -3.09009330686684   -2.29128033567184
H         5.15683414912465   -5.45503179057082   -2.83682086724340
H         6.51519137974131   -4.84725849175499   -3.69124654979950
H         3.89141898852629   -5.67106748143688   -4.70613228029792
H         5.62334905582547   -5.79492195514578   -5.35320099284777
H         3.66981026158335   -3.62773352576435   -5.96101943785481
H         4.81824716943925   -4.51027317141806   -6.92966101271936
H         6.11609660848548   -2.39990767072721   -6.47776197847862
H         6.73015576944916   -3.77642676805514   -5.58584076942597
