35
 energy: -44.220307265508 gnorm: 0.083649721883 xtb: 6.4.1 (025e99ea0bd20707e8cccc6e19fe66a0758c6dd1)
C         1.02463110614608    0.86624379541785    0.56868309018444
O         2.21667489577034    1.43167300615413    0.03953586070692
C         2.80841591605540    0.81028522257028   -1.02554012843173
C         2.17085900846785   -0.00251904083886   -1.96391088061087
C         2.88342631045287   -0.70142923719716   -2.94333174243337
C         4.28237030346353   -0.66683279563492   -3.02483214507482
C         4.86331901416469    0.30097058596030   -2.19459545689954
C         4.18096174925267    0.98896022168810   -1.17727875441880
C         5.00798512529062   -1.31747613523438   -4.18448454285401
C         5.65388694949624   -2.72029046931173   -4.03135410169774
C         4.61540590154727   -3.74324571995528   -3.54168840331956
C         3.86659043878313   -4.46051150297763   -4.66090536257838
C         4.83792233936381   -5.32769179521745   -5.43799637900168
C         6.16704062304032   -4.63310449856291   -5.65440507468746
C         6.12907694611308   -3.13174230601615   -5.43365389511349
H         1.22871229666933    0.86019192150221    1.64439243810046
H         0.76727009126814   -0.15288177198993    0.26349432041267
H         0.18403947937911    1.54062089444272    0.37470625057584
H         1.10211183489354    0.10460562861870   -2.12753581580345
H         2.22260783550428   -1.25721643200150   -3.60619872930143
H         5.93598330070967    0.43733080452045   -2.28868964365366
H         4.81362008010792    1.61120904013985   -0.55130557012162
H         5.87956276838596   -0.70547746880018   -4.45837387772388
H         4.33625460108666   -1.35240669621109   -5.05294330735122
H         6.50007567194463   -2.65994059763365   -3.32635924082655
H         3.95881292520121   -3.22362788641111   -2.83529911967073
H         5.21869270790806   -4.54567961637944   -3.09204338984687
H         3.32156730489639   -3.78356902170998   -5.33118294361257
H         3.13260358820068   -5.10068461460489   -4.15425327991085
H         4.37732531324831   -5.56162209108793   -6.40641177657616
H         5.11409558968418   -6.24051623757743   -4.89810968940250
H         6.62299429219789   -4.96952449387000   -6.59184767698398
H         6.76110305327202   -5.04370838812746   -4.82766706752378
H         5.36922037480419   -2.69070558669158   -6.08664694584036
H         7.05831613549244   -2.68209197212212   -5.81417337232249
