35
 energy: -44.220673581681 gnorm: 0.085406660362 xtb: 6.4.1 (025e99ea0bd20707e8cccc6e19fe66a0758c6dd1)
C         1.91430425869698    1.89499334336263    0.84624830146258
O         2.99036839548318    1.91150781590977   -0.08245435607956
C         3.07669851242713    0.87686439078088   -0.97280662631421
C         2.08229703919652   -0.06977638494081   -1.22321866731570
C         2.26093078417186   -1.05451374263979   -2.19988399256514
C         3.38509132517447   -1.10372796731087   -3.03578144115579
C         4.31658443341535   -0.08032964885925   -2.81574917322789
C         4.17984641083720    0.90339456473277   -1.82203703307918
C         3.42105514910626   -2.06914178825744   -4.20254193159845
C         4.22887975276765   -3.39335261969287   -4.15343779812232
C         4.16616146761968   -4.14893535574251   -5.49127708604397
C         5.17405171214853   -5.29143025948552   -5.57315532822857
C         6.59161263035772   -4.83067834193622   -5.29461183320449
C         6.58724703687035   -3.34940146173456   -4.97580249613441
C         5.68720622797517   -3.08048963829661   -3.78337902665783
H         1.88697794737400    0.94191982624434    1.38452378870128
H         0.99299202132085    2.13350411842499    0.30561147901277
H         2.21334667812946    2.67634663289854    1.55269464753988
H         1.11595746698940   -0.15578811990557   -0.73407744384932
H         1.56702137786705   -1.88208875658810   -2.06356659584418
H         5.08433993112281    0.02860251174220   -3.57518433720057
H         4.86362394278218    1.74591880226151   -1.77851953346902
H         3.81551157874671   -1.53121014352629   -5.07674956738628
H         2.38193844470789   -2.22188306799137   -4.52436367663720
H         3.86727795892869   -4.08212737584150   -3.37143480144415
H         4.20359272260060   -3.40935490553662   -6.29857040593553
H         3.19863457225118   -4.65482498925698   -5.62545289390758
H         5.09812492392515   -5.91300141294177   -6.47451973694105
H         4.79189164026703   -5.96624906521680   -4.79609168835277
H         7.28260024112616   -5.09682560536287   -6.10479893554627
H         7.13675092035145   -5.33367053941961   -4.48787714481669
H         6.26370699446097   -2.69267850408509   -5.79060774465252
H         7.63513508461910   -3.06882330744150   -4.80785013592782
H         5.73155457161003   -2.01206830764669   -3.54927562453973
H         5.94291734499837   -3.66339650205212   -2.88599539686835
