35
 energy: -44.222975458462 gnorm: 0.091503071893 xtb: 6.4.1 (025e99ea0bd20707e8cccc6e19fe66a0758c6dd1)
C         1.11277489149124    0.64843766267312    0.25135506687396
O         2.52652319211570    0.50583060678338    0.29202889730359
C         3.05032566751837    0.31123995672233   -0.95634305693981
C         2.23723754481182    0.18120819987766   -2.08312995018473
C         2.82419107320652   -0.12638558147635   -3.31453746910604
C         4.20385352961117   -0.37016515482094   -3.35910826234342
C         4.99118438142616   -0.24564347413452   -2.20670111277285
C         4.42233392066473    0.07377849688565   -0.96241287724205
C         4.80841941190612   -0.85241581828145   -4.66163723749575
C         5.20415023639895   -2.33875055525835   -4.45491918682856
C         4.04643628554276   -3.16288651874754   -3.86742351689738
C         4.41123753587527   -4.63256990125699   -3.68089681897636
C         5.73444668267785   -5.06955637973624   -4.27882502546378
C         5.91122412215933   -4.49294195810659   -5.66882689408287
C         5.55176003325772   -3.02282929405462   -5.78636448289985
H         0.74712151108024    0.96492750088002    1.23368298873495
H         0.61736239783085   -0.27616294964786   -0.06117008867609
H         0.88976491916082    1.52923663174088   -0.35976317083548
H         1.15439444739576    0.26022894263642   -2.04219245237988
H         2.09399962569983   -0.12075057881933   -4.12185512683663
H         6.05382431893141   -0.45137032787484   -2.28750532051768
H         4.98589544058783    0.02256578930372   -0.03555352740488
H         5.65429704481950   -0.25354737714027   -5.02913273443723
H         3.93887414296372   -0.84181071786247   -5.33278643150371
H         6.05281928881296   -2.43325399772000   -3.75668916527892
H         3.21733791295337   -3.14979941577702   -4.58333375498763
H         3.61675582228445   -2.74957049224913   -2.94298837660402
H         3.64153978793955   -5.17743156815107   -4.24238102856391
H         4.39701992230731   -4.85329505002914   -2.60556760849684
H         5.70601243228308   -6.16299566511073   -4.36983826096204
H         6.62848309222912   -4.94032673927269   -3.65834427444844
H         5.19429543321074   -5.08766131035162   -6.24518871032635
H         6.92083550987777   -4.62128327048123   -6.08018417316396
H         4.74361890015759   -2.91121575246724   -6.51625875474412
H         6.35827198804623   -2.37737124511106   -6.16503101839777
