35
 energy: -44.220144804796 gnorm: 0.102915243396 xtb: 6.4.1 (025e99ea0bd20707e8cccc6e19fe66a0758c6dd1)
C         2.56173583426430    0.91379357008760    1.09427175169788
O         1.83674789940878    0.90280763367822   -0.12840857626155
C         2.59135288978854    0.55188628230311   -1.21380830770883
C         1.83039674425625   -0.17762022259261   -2.12837665161079
C         2.41459700881197   -0.57292797959498   -3.33582630665200
C         3.79606275257923   -0.49200873146123   -3.55918249361186
C         4.56651061703692    0.24897654615202   -2.65320862703093
C         3.91571495287071    0.82245237755217   -1.54800959439752
C         4.43275212356740   -1.09543093816315   -4.79415439770860
C         4.95615963940911   -2.49317287870809   -4.36884483434229
C         4.03541478697534   -3.55188783717409   -3.73955603947144
C         4.37388215114093   -4.96560727330144   -4.20289026399623
C         5.86719222024168   -5.22135462042264   -4.26594659598498
C         6.55603080890444   -4.19531908075523   -5.14264045383228
C         5.63586243970280   -3.08388063249730   -5.61408028240399
H         1.81729875801268    0.89734791328627    1.89700417082739
H         3.20577149061981    1.79682198967705    1.15318427386633
H         3.19785470961134    0.02359926980140    1.13800565384202
H         0.80511100752888   -0.39065420401014   -1.83876482999217
H         1.70696189247512   -1.01977468205069   -4.03192519733436
H         5.61832203938683    0.42782387427341   -2.85261485874905
H         4.64736709130749    1.29563500927868   -0.89987695815103
H         5.31917352104092   -0.58582151951898   -5.19882792508154
H         3.71776994889872   -1.28478275826170   -5.60631758549247
H         5.66535416290052   -2.25565089062993   -3.55809107464339
H         3.02033116726882   -3.41569852097260   -4.12834977196553
H         3.99626711069100   -3.34931839710718   -2.65906131600890
H         3.91143355262905   -5.29370963201993   -5.14260485438578
H         4.01196594136208   -5.68250639321102   -3.45434036468564
H         5.95907755443793   -6.26248553384772   -4.60106581777224
H         6.31871991878678   -5.23902933605841   -3.26754381833672
H         6.90227496466013   -4.70670858673979   -6.04733186797977
H         7.41291415920484   -3.76957898628831   -4.60459049857590
H         4.83248796782032   -3.39507254006357   -6.28939086038559
H         6.23541589285601   -2.37073875205135   -6.19925571360653
