35
 energy: -44.220114586653 gnorm: 0.095560522883 xtb: 6.4.1 (025e99ea0bd20707e8cccc6e19fe66a0758c6dd1)
C         0.93873328579484    0.93091981898476    0.30317004574879
O         2.31857642249253    0.59603682788140    0.23562990265878
C         2.96126864404292    0.24813123939483   -0.92047367128327
C         2.42644299685521    0.67136634450506   -2.13805438904371
C         3.01658565289314    0.25855863676124   -3.33672626725945
C         4.24452717857157   -0.41712025476330   -3.35911267705078
C         4.76764710247471   -0.77348983615340   -2.10899908368194
C         4.14266044398792   -0.48792692919766   -0.88355225792220
C         4.85513677310416   -0.92698158498154   -4.64823821461384
C         5.17973874586442   -2.43895672953119   -4.51750608041231
C         3.92126324051723   -3.28791458295162   -4.27222502772163
C         4.27176357098644   -4.72373201270068   -3.89351771384233
C         5.76026967921740   -4.92753279051601   -4.09887734317176
C         6.18865236184859   -4.47086785819333   -5.47865452295769
C         5.96398837682595   -2.98899481872604   -5.71915223306049
H         0.34885680614700    0.14964523021753   -0.18722990334358
H         0.75894659425470    1.89196762369827   -0.18882148116455
H         0.76025996491063    0.91780586436633    1.38343902480980
H         1.50304860566693    1.23715530440794   -2.22577535422449
H         2.50034446223647    0.43396498559877   -4.27890498885291
H         5.75823436376439   -1.21320210109632   -2.16770588619310
H         4.40452256377751   -0.77977825404336    0.12913900754605
H         5.75268920342270   -0.32274353654858   -4.84445577982065
H         4.18368136574026   -0.75002253336250   -5.49941139991248
H         5.82162119725747   -2.65826406577136   -3.64768631110580
H         3.23632756271348   -3.32415699436148   -5.12642199193410
H         3.32243893856645   -2.83536403278406   -3.46808373415508
H         3.67606888482613   -5.47213954283366   -4.43166953702286
H         4.06972702109405   -4.87903565517286   -2.82566161231564
H         5.84484877675985   -6.02184410848120   -4.10440024053958
H         6.25499338856803   -4.56317250711522   -3.19141505794146
H         5.53238320762259   -5.11906697502393   -6.06943324438678
H         7.22888212038997   -4.80870178936713   -5.57241881120578
H         5.27752574706239   -2.81904463227141   -6.55472468024886
H         6.82122458821632   -2.34988732496060   -5.97829245815337
