35
 energy: -44.223343211309 gnorm: 0.096511249695 xtb: 6.4.1 (025e99ea0bd20707e8cccc6e19fe66a0758c6dd1)
C         0.75510481488581    1.06114313884643    0.12976831493716
O         2.16965383056877    0.92099141863462    0.13893118050316
C         2.81111024510211    0.57142095247294   -1.01735652150683
C         2.10146043995798   -0.16397036187532   -1.96775961500570
C         2.83200685336964   -0.71709215768880   -3.02409813976616
C         4.21522834044642   -0.56001613048803   -3.18813768655601
C         4.90852272637860    0.01304715506194   -2.11371732182505
C         4.20190715469634    0.62110072101068   -1.06260374667359
C         4.85615184181510   -1.14478607244801   -4.42987377214033
C         5.54791233034699   -2.51203077213065   -4.18363093588819
C         4.49351289172873   -3.49402350222062   -3.64642991230799
C         5.14467176354329   -4.87340340568497   -3.68026205710211
C         5.16965791101895   -5.29045893055357   -5.13793079592324
C         5.36455145449754   -4.10871142022613   -6.06600890631117
C         6.23733345497914   -3.02621073544651   -5.45715374346273
H         0.23692411953343    0.10150471478259    0.22682097260313
H         0.20290238525576    1.66783268323341   -0.59479505081906
H         0.47676548625778    1.49960092491651    1.09376404015107
H         1.06996510393029   -0.48554142912000   -1.85339723066106
H         2.24806812856576   -1.19508011907720   -3.80864653741938
H         5.99364415181730    0.02532516311665   -2.13414368181955
H         4.74746253209424    1.05225575742524   -0.22847710774580
H         5.60770860556996   -0.41581451243225   -4.76598122547550
H         4.21415723079030   -1.25851157674738   -5.31393943324024
H         6.29951683066539   -2.38063971773658   -3.38706186285315
H         3.57800521469105   -3.33618943135478   -4.22697874901186
H         4.20658727536344   -3.31906030918941   -2.59900576789256
H         4.67552679109071   -5.58440075536835   -2.98819331776171
H         6.11349154501164   -4.70771395303580   -3.19119163222899
H         4.20023312589885   -5.75033218542335   -5.36908780416463
H         5.92654101583564   -6.05888281868841   -5.33196805649774
H         4.44989262919994   -3.55555914750279   -6.30536761878282
H         5.84659749186679   -4.42768602903746   -6.99922285555059
H         6.31296984608564   -2.21995491630175   -6.19371739415743
H         7.24397033762678   -3.36768003997442   -5.17334593745620
