35
 energy: -44.220002020945 gnorm: 0.100656655623 xtb: 6.4.1 (025e99ea0bd20707e8cccc6e19fe66a0758c6dd1)
C         1.49627179813749    1.38682685142914    0.81947395532836
O         2.74705955471716    1.49229479823013    0.15232938366611
C         2.98781816061096    0.70960636764780   -0.94316191637018
C         2.12654855662336   -0.18784866965507   -1.57597971972314
C         2.51049821787895   -0.88805969985972   -2.72392571837500
C         3.74826855859312   -0.66290406198512   -3.34207865864512
C         4.59551344460627    0.30106647127791   -2.77960672848096
C         4.18724158186286    0.95653333824569   -1.60591523372776
C         4.12678551710643   -1.49877065976848   -4.54735841159314
C         4.55967869154702   -2.90202210463876   -4.04534738396021
C         3.88711391239341   -4.03557023943261   -4.83741940325118
C         4.63981993482318   -5.35303259171008   -4.67751942958515
C         5.93997174890629   -5.13809603606188   -5.42769628059128
C         6.59072871464313   -3.77389563658387   -5.32133702138250
C         6.08839472028346   -3.05423421185020   -4.08278595074062
H         1.10408929013255    2.40237463116298    0.93648653700821
H         1.71670519649705    0.85747687830335    1.75177730004959
H         0.86573407820845    0.84001562464378    0.11065420635326
H         1.13300347257452   -0.25642022217930   -1.14165790512897
H         1.84212433624452   -1.60971072972348   -3.19026170359096
H         5.55848213902477    0.58532705380122   -3.19184902179188
H         4.84807540915210    1.68020980977536   -1.13806525354063
H         4.94047005550997   -0.96421250252900   -5.05860236349100
H         3.21300794419316   -1.56517723382742   -5.15338101236129
H         4.31823813038501   -2.83041140013360   -2.97144161982161
H         3.86045291463396   -3.72885634112808   -5.88876075068478
H         2.81793644134719   -4.02924521112066   -4.57885549019917
H         4.04905034492189   -6.18947335063309   -5.07240108884457
H         4.73931142421391   -5.46963804529817   -3.59043191913025
H         5.87128124928393   -5.55052583353550   -6.44252861355735
H         6.71652110312334   -5.80259674830314   -5.03221218601536
H         6.39807035815599   -3.15260410348471   -6.20267145559257
H         7.68176435836479   -3.89470987195693   -5.32816364982716
H         6.67972209716559   -2.13352656789012   -4.05237725326957
H         6.45388709420152   -3.63933794449691   -3.22573582533256
