35
 energy: -44.218749812259 gnorm: 0.098249006175 xtb: 6.4.1 (025e99ea0bd20707e8cccc6e19fe66a0758c6dd1)
C         0.85109438458130    1.26281871329396    0.06430113999059
O         2.19246227341112    0.82009363905059    0.22368143542772
C         2.76443159724514    0.26701091624764   -0.88880122826572
C         2.02076289066520   -0.14775876864364   -1.99451014723496
C         2.68037303815963   -0.67675149791958   -3.10832071951813
C         4.07846644227784   -0.73061738956691   -3.19385914093992
C         4.75878473674576   -0.15477615568225   -2.11265072459359
C         4.15496940239633    0.32119943652119   -0.93675586301306
C         4.80404946948734   -1.17533074961801   -4.44701779651226
C         5.64695145352124   -2.45284095586030   -4.19009350693376
C         4.59287047408163   -3.40777159920169   -3.60556498052971
C         5.20149624939318   -4.80657933035609   -3.63300594999063
C         5.33929415006578   -5.23122645324228   -5.08215892021484
C         5.33784628533587   -4.02541009351311   -5.99967974374538
C         6.25846223715903   -2.91735991117515   -5.52119063578967
H         0.09243587281800    0.53310003655560   -0.23700314137797
H         0.74011777495285    1.95317721062647   -0.77776841772630
H         0.61183291803452    1.81097337416406    0.98151768429808
H         0.94447389209813   -0.05953887199557   -2.11404494614981
H         2.14998649944458   -1.14975571767504   -3.93289954126158
H         5.84251045400024   -0.10184987126761   -2.08447496059457
H         4.71228141349594    0.73642208818086   -0.10231829721285
H         5.39899324900119   -0.38306404870201   -4.92405101429821
H         3.99211933517294   -1.37734435624802   -5.15879208265686
H         6.45850552907666   -2.50629599540143   -3.44496415084743
H         3.63310798462457   -3.42536626128347   -4.13343735528122
H         4.43690415834899   -3.05514896228586   -2.57533803769627
H         4.51495590529270   -5.49482253199395   -3.12353855301221
H         6.14064252056761   -4.74453922816675   -3.06784230010280
H         4.50656604688750   -5.87449327134861   -5.39436573327660
H         6.18677111748637   -5.92009127746361   -5.17296535535981
H         4.29257556161010   -3.71796645135963   -6.11263246598207
H         5.67922976977445   -4.34554899355280   -6.99263989395907
H         6.38503174569342   -2.14824473419746   -6.28978501807620
H         7.28889661777607   -3.28767201675539   -5.41376670313383
