35
 energy: -44.225144190683 gnorm: 0.092316674305 xtb: 6.4.1 (025e99ea0bd20707e8cccc6e19fe66a0758c6dd1)
C         0.88153484977163    1.31852364883054    0.20780195303023
O         2.22540537790317    0.85539124782165    0.19381041773474
C         2.75154049640842    0.41323568066441   -0.98870696995360
C         2.03577697089064   -0.16889246396921   -2.03583573585784
C         2.67864793993460   -0.74879463307728   -3.13398109684179
C         4.06127557924090   -0.58507060101965   -3.29651966734866
C         4.80642571398407   -0.08443774694290   -2.22062200238862
C         4.14094516731735    0.38534049160881   -1.07593055710684
C         4.77541285928239   -1.15359686411043   -4.50541717268562
C         5.52832576693223   -2.45522807523862   -4.12148419492561
C         4.59322464167805   -3.50797673196988   -3.50345588738573
C         5.05734170317531   -4.94150635310366   -3.74310058840968
C         5.29001443841118   -5.29409713723969   -5.19943190557163
C         5.49280963937931   -4.06723166597450   -6.06517717488432
C         6.27112480327888   -2.96786188714605   -5.36526835405714
H         0.11673398283587    0.53694952783618    0.15250383006177
H         0.62500631581087    2.01382576902112   -0.59764194537367
H         0.76596364813496    1.79246282412945    1.18812369916698
H         0.98329694929242   -0.16902769401831   -1.76610416985914
H         2.18388901482299   -1.33796486494791   -3.90408832699879
H         5.89059001187502   -0.04900926677679   -2.18335147925047
H         4.64583159109599    0.79889631251472   -0.20797095583968
H         5.42091462939259   -0.35784407505533   -4.90455410599334
H         3.93982761947289   -1.46260174623286   -5.14804923921568
H         6.30147970134576   -2.19174421683223   -3.38019850406102
H         3.54104530428901   -3.30884132406703   -3.73446796968713
H         4.54893720250249   -3.27195023565003   -2.42997282579711
H         4.32127086668465   -5.65503120889530   -3.35111158422475
H         5.99556573712587   -5.02676093965373   -3.17943228130472
H         4.53754068608205   -5.93941962766044   -5.67064684727558
H         6.25432738106085   -5.81451068167910   -5.21580432735312
H         4.52029548241582   -3.67073094405477   -6.37642336117672
H         5.96612895699369   -4.32883863045236   -7.02044262362029
H         6.40168981043719   -2.05074549997241   -5.94848841037056
H         7.29252939243364   -3.25981481507943   -5.07897807539946
