35
 energy: -44.219557236443 gnorm: 0.093989629028 xtb: 6.4.1 (025e99ea0bd20707e8cccc6e19fe66a0758c6dd1)
C         2.32703579524334    1.80171827143050    0.71608243737763
O         1.88554817042969    0.62549123118458    0.05106062803297
C         2.58280914907742    0.13040456158851   -1.01635841007102
C         1.82166566352051   -0.58265429843016   -1.94365390369399
C         2.42736222702714   -0.89397503255921   -3.16500722774600
C         3.76276165932905   -0.60129209673349   -3.47473066352733
C         4.54764354863864   -0.04662654584479   -2.45505212335539
C         3.92754387241245    0.38656279661518   -1.27111891080754
C         4.37967731584833   -1.13067659708758   -4.75293818993942
C         5.16410089323275   -2.37824509872726   -4.26633908520694
C         4.38049664852119   -3.50148020541167   -3.56708224540734
C         4.16549659049082   -4.71403401516218   -4.46782063266929
C         5.50293716516594   -5.28826740321527   -4.89310465070109
C         6.58589969474293   -4.28143688136360   -5.22374661895185
C         6.00666917805763   -2.89551830291021   -5.44279562634654
H         1.95661645933128    1.81190073373401    1.74638442672312
H         1.88601085000475    2.66101342942257    0.20120319737224
H         3.42008740078208    1.86542101505077    0.72971755872771
H         0.83319016230450   -0.99031781707469   -1.75079131609782
H         1.79499528297356   -1.41546007788100   -3.88134409914020
H         5.62884592516290    0.04854645185223   -2.45520517173077
H         4.51786942499035    1.08879605215435   -0.69001927546851
H         5.05943247841000   -0.40124386412093   -5.21669042588845
H         3.61410966031477   -1.47492451878198   -5.46150167448993
H         5.87078731503680   -2.06354486679920   -3.48004823895240
H         3.42291945622413   -3.05838849058528   -3.27243244148731
H         4.94935566811759   -3.69624871458059   -2.64594142367234
H         3.69752386910353   -4.27664817082931   -5.35903807677974
H         3.59763673541500   -5.51287694032788   -3.97320986707988
H         5.31182632814590   -6.04831665127922   -5.66154669494807
H         5.94166963198700   -5.94239364778033   -4.13111354581526
H         7.22112980653154   -4.59737255986038   -6.05833522953819
H         7.24430404656819   -4.23102800182162   -4.34684062998537
H         5.24377408337828   -3.04737468271721   -6.21300731116702
H         6.74916115057057   -2.13852443230662   -5.73627803271430
