35
 energy: -44.217004591711 gnorm: 0.098904523566 xtb: 6.4.1 (025e99ea0bd20707e8cccc6e19fe66a0758c6dd1)
C         2.32358742006351    1.85996788649366    0.67592884383405
O         2.03594526102752    0.56316005384689    0.16974032649661
C         2.64039238929276    0.25882797912279   -1.01882718757267
C         1.79773691555870   -0.38938066743987   -1.92294363415934
C         2.39100059990284   -0.85855813823253   -3.09912539723973
C         3.75598516534098   -0.64075404180030   -3.33206750510053
C         4.55810830200034    0.09359758094079   -2.44845904560661
C         3.99178878915497    0.51613677918708   -1.23412084121997
C         4.38982280059942   -1.21387942632812   -4.58283705709037
C         5.16121684502017   -2.51801515822960   -4.24711782182213
C         4.14992546208469   -3.59771554148112   -3.82736830059399
C         4.28042506195709   -4.92432228667598   -4.56961206422966
C         5.75093111649124   -5.29318236035938   -4.53941338925218
C         6.46914702146924   -4.32598570434995   -5.45839989234384
C         5.92799906671782   -2.90908605647104   -5.52016591408068
H         1.60891966171470    2.05002318881453    1.48337254737272
H         2.11503813095004    2.57040962959599   -0.13015522526338
H         3.36003695697688    1.96675220688599    1.01264123566758
H         0.77020383967643   -0.52858740195525   -1.59849551030179
H         1.79952843862794   -1.24816925321803   -3.92576737454147
H         5.55885354929283    0.36263228744658   -2.77123724118834
H         4.64642233926527    0.89470607994107   -0.45474110791837
H         5.00255666373547   -0.46557729685603   -5.10610224382027
H         3.51226139889085   -1.49309618061356   -5.18165812309227
H         5.75762894714395   -2.19091750187665   -3.37878899421185
H         3.10647169831665   -3.27126456847328   -3.89619312527796
H         4.39343559811103   -3.97269936677149   -2.82231819617026
H         4.10233005231330   -4.75093273455476   -5.63862638001170
H         3.51886727018753   -5.64809630543558   -4.25112259441400
H         6.07794807622154   -6.29431551757334   -4.84843393231668
H         6.07786648821521   -5.19134145996774   -3.49838531155252
H         6.47692050659245   -4.74766280273791   -6.46933945240248
H         7.48939848487662   -4.29116191748069   -5.05482125844889
H         5.19489915407172   -2.87503632857519   -6.33238537744617
H         6.77217381255193   -2.20499286284118   -5.56585775865084
