35
 energy: -44.214419092087 gnorm: 0.088241815669 xtb: 6.4.1 (025e99ea0bd20707e8cccc6e19fe66a0758c6dd1)
C         1.59347478291260    2.04311640557415    0.21939180961507
O         2.25552739401052    0.79589676142698    0.38311376800096
C         2.80869262116687    0.24420119659255   -0.73952032750514
C         1.94932094706607   -0.11489890461046   -1.77884543884564
C         2.51216700741685   -0.73765019212663   -2.89727200683710
C         3.89736301343730   -0.72095950525904   -3.11136767506927
C         4.73522027228995   -0.22515794013171   -2.10359103421095
C         4.19334608242598    0.18534978738120   -0.87406665544165
C         4.50744943333057   -1.25682719689614   -4.39015135231382
C         5.24572738412158   -2.59727978992489   -4.13196791430343
C         4.33625278628155   -3.79182526084584   -3.79944738185602
C         4.18215258187689   -4.89027303768357   -4.84706706953979
C         5.53629390216065   -5.41595652435977   -5.28217156743891
C         6.48519965252627   -4.25629021744791   -5.50709729335848
C         5.95976633452544   -2.83257482677913   -5.47223933872386
H         1.97454081129847    2.68758438949393    1.01831987709140
H         0.51221030134043    1.93484270477693    0.35029531717750
H         1.80622861881801    2.53945694544160   -0.73317715961689
H         0.89167597654565    0.13379667766042   -1.77621007959280
H         1.78301822003407   -0.90338574098014   -3.68837684987836
H         5.79002035407156   -0.14891734539581   -2.34780537146020
H         4.70405638171048    0.61001104020292   -0.01492151008783
H         5.20574737371217   -0.48551162329717   -4.74604121721765
H         3.72470361606470   -1.40491610706519   -5.14648548945642
H         5.85357786491217   -2.33401559001752   -3.24997869784290
H         3.29698014735681   -3.45662799587993   -3.71193723148315
H         4.77328776019191   -4.22438525699848   -2.88734648445607
H         3.61731719091222   -4.55149626369678   -5.72499910159640
H         3.66050386275693   -5.75515979101469   -4.41682509131643
H         5.46582683729575   -6.12634256985691   -6.11589061166281
H         5.93109092458035   -6.03640332162161   -4.46965766178421
H         7.03879276693102   -4.46058584646607   -6.42995630512639
H         7.24378265060719   -4.28883029725431   -4.71432088299695
H         5.26800449951638   -2.51627981725611   -6.25946125963553
H         6.85806841375661   -2.19790412836998   -5.44554757445439
