35
 energy: -44.217308506095 gnorm: 0.104795394106 xtb: 6.4.1 (025e99ea0bd20707e8cccc6e19fe66a0758c6dd1)
C         0.94700554150470    1.41794566826816    0.43941504329540
O         2.34067595228239    1.51409470068218    0.17652051465439
C         2.82525331847928    0.80753899844358   -0.88960841598596
C         2.04840495828803    0.02591373509276   -1.74590149228336
C         2.55497792583054   -0.74160726020322   -2.79936635173825
C         3.94680126652737   -0.74205834329809   -2.96583295145792
C         4.76043420983071    0.07393354897892   -2.16858992881566
C         4.19344931800802    0.85092675998945   -1.14453712411838
C         4.51734384502159   -1.36651054990002   -4.22249040358829
C         5.19159353636526   -2.76149649158363   -4.13345249670334
C         4.16192023289700   -3.89449327305414   -4.27748032580107
C         4.78674631622194   -5.28519475740334   -4.21931545980306
C         5.88109908203786   -5.37895790755755   -5.26476190231437
C         6.11732557111310   -4.10917418038164   -6.05702825893959
C         6.29990139533343   -2.87530848535860   -5.19186800046694
H         0.77157843070232    2.05768485613111    1.31050370627356
H         0.69631262100552    0.36072455060390    0.57143159896728
H         0.30316955339858    1.75952769293829   -0.37777692300502
H         1.02614812342230   -0.16655329761283   -1.43218705961276
H         1.86796452292042   -1.38766942847649   -3.34304766240427
H         5.82972964814615    0.14768847202995   -2.33954014476807
H         4.89583794497021    1.45232035306327   -0.57509129415858
H         5.21827826506836   -0.66584416009481   -4.69889661204480
H         3.59107662988243   -1.44034415797915   -4.80835756290680
H         5.62211508425220   -2.91604251493032   -3.12972845904229
H         3.59413108357227   -3.70499265559072   -5.19498119737586
H         3.49627008035986   -3.73991026248930   -3.41547699941873
H         3.99153730163477   -5.97928567004844   -4.52007084911085
H         5.12965631061301   -5.44151777975512   -3.18818477395575
H         5.58861770570480   -6.17639212836667   -5.95992713032142
H         6.71675838072496   -5.82506817052753   -4.71371114829472
H         5.20743448128827   -4.07285601946444   -6.66583856697088
H         6.84809183363793   -4.33279958962275   -6.84504716864359
H         6.49655224983928   -2.02405859720298   -5.85141131748422
H         7.29732571225911   -2.92885942648055   -4.73062728552434
