35
 energy: -44.223941418689 gnorm: 0.095780461379 xtb: 6.4.1 (025e99ea0bd20707e8cccc6e19fe66a0758c6dd1)
C         0.82652482194738    1.19282518803049    0.32198016286472
O         2.23162576564878    1.26547228045848    0.11927564779877
C         2.76406559961365    0.60459912888289   -0.95330142721352
C         2.02329074172856   -0.08658611473615   -1.91308516802520
C         2.56998662645691   -0.70009733693397   -3.04455343672215
C         3.96326419251294   -0.72275978734819   -3.19669671897777
C         4.73390849753744   -0.05847976601110   -2.23322529374192
C         4.13172358894223    0.68274624194845   -1.20277305861786
C         4.71504345563995   -1.24810103043351   -4.40230522159294
C         5.46723976857728   -2.55943130710535   -4.05139241321821
C         4.52345580550558   -3.67523294069569   -3.57294556770977
C         5.07045790033875   -5.07135125935064   -3.85487420221789
C         5.45323667087176   -5.24244461947828   -5.31211997583232
C         5.56950646893873   -3.97471843329134   -6.13382022651803
C         6.33542995188788   -3.02480116078412   -5.23089212503354
H         0.37100222735816    0.20009988364261    0.24561269070125
H         0.42114947072861    1.93527249673709   -0.37259497523872
H         0.67284617973472    1.64146131312815    1.30895243879894
H         0.94338883754125   -0.06135674828335   -1.79627465729958
H         1.99165637589538   -1.37655519004073   -3.67138036926023
H         5.81855903167105   -0.01915492136886   -2.23980410296536
H         4.75414199761240    1.23094005048776   -0.50179412538154
H         5.44430066581990   -0.53136778548501   -4.80688240952342
H         4.04804176293009   -1.52484455181656   -5.23006390595796
H         6.16114067750225   -2.34566345485847   -3.22103101028488
H         3.51479063127429   -3.68297721755112   -4.00030659050454
H         4.41010043150112   -3.51479155947653   -2.49061249044491
H         4.36885578644929   -5.84655875531117   -3.52113599924557
H         6.01187078256612   -5.18543608991854   -3.30171863630420
H         4.73023718696513   -5.92462938448965   -5.77751988923003
H         6.47670285795669   -5.61691531418092   -5.42738674423946
H         4.64183594343773   -3.55315413140370   -6.53579252842318
H         6.13824179395342   -4.24210571059633   -7.03384557746777
H         6.74168189158681   -2.26803901230348   -5.90954205868792
H         7.21982170140063   -3.62840137693411   -4.97794157286665
