35
 energy: -44.215292217617 gnorm: 0.103640020480 xtb: 6.4.1 (025e99ea0bd20707e8cccc6e19fe66a0758c6dd1)
C         1.78754519082428    0.65217100080244    0.85313932168934
O         2.40626580624932    1.58414676333365   -0.02394754190482
C         2.81328121217073    1.00086474254803   -1.19218879731192
C         2.01427016574933    0.04019503497587   -1.81377091251947
C         2.52801036867859   -0.66326765558354   -2.90771063172522
C         3.79625022108213   -0.42791165058879   -3.45639885094692
C         4.55158950953253    0.58309926436341   -2.84750045932680
C         4.06211409355065    1.28960639902237   -1.73613375979978
C         4.40003916237909   -1.35193543895010   -4.49383139471976
C         4.72974120792863   -2.78012527813162   -3.98383481166182
C         3.92170654991724   -3.90164544098369   -4.65757463276639
C         4.53002754303097   -5.28831917908762   -4.47069788963760
C         5.83231310054566   -5.31907070257020   -5.24688371746064
C         6.49298129251907   -3.95961970812575   -5.35295059692940
C         6.21065477303056   -3.17854225523048   -4.08233243725914
H         1.95858986816543    0.94266629632040    1.89486508214880
H         2.13784529204266   -0.37889476196425    0.74275347524374
H         0.70282699834396    0.51048452517751    0.80500249251483
H         1.07331415323319   -0.37291091940788   -1.46104638981662
H         1.90004212842438   -1.48200496360098   -3.25455097196248
H         5.47480748052204    0.97047656849643   -3.26662323123489
H         4.61395811666929    2.08952930507242   -1.25148532433359
H         5.34476107465482   -0.94582003484621   -4.88341592906145
H         3.67712938974987   -1.61344150585281   -5.27848336194690
H         4.56331871477762   -2.77271180148863   -2.89344780864719
H         3.72511829101714   -3.71352858549144   -5.71873812375670
H         2.95354134851349   -3.73307189697755   -4.16333292007446
H         3.71574600611033   -5.91247736360023   -4.86049978263568
H         4.65298861021778   -5.48646755795586   -3.39791066081115
H         5.69035412183976   -5.75817568859630   -6.24274306780560
H         6.52896885022282   -5.98171115405956   -4.72097862804837
H         5.98057439545824   -3.43030513519462   -6.16358988206573
H         7.54937454624729   -4.07905457384055   -5.62639174787919
H         6.88409104643619   -2.34131678654427   -3.87297050542098
H         6.48558992723379   -3.83964385075699   -3.24697544190652
