35
 energy: -44.219698795522 gnorm: 0.108360056843 xtb: 6.4.1 (025e99ea0bd20707e8cccc6e19fe66a0758c6dd1)
C         0.75130073111083    1.12566534027154    0.10206549241564
O         2.15162576153802    0.88552519324053    0.14786839858703
C         2.70890012413886    0.40481516567761   -1.00496734342321
C         1.96485115457379   -0.07335975918964   -2.08450851290423
C         2.66021059879499   -0.56590556848175   -3.19327662287068
C         4.05975565904772   -0.55056609893669   -3.27023011239236
C         4.76957396786076   -0.17996847686599   -2.12033745603134
C         4.09898882304413    0.32506730016291   -0.99378124779774
C         4.84881428315332   -1.08716157214181   -4.44670752167528
C         5.66377195437583   -2.39095178626597   -4.23575438665210
C         4.82657856439242   -3.37597950623423   -3.40299965230972
C         5.35687355663622   -4.78529919690723   -3.64885862738894
C         5.04914067317439   -5.26899449089623   -5.05267382310157
C         5.34278205218569   -4.16122506767138   -6.04386567805775
C         6.26501331996899   -3.10985688731940   -5.45363250959530
H         0.12319981994182    0.23640270764321   -0.01428558482425
H         0.55868105637278    1.80630245015309   -0.73317255136208
H         0.69005865437448    1.61395225792056    1.08024291400410
H         0.88201347671720   -0.02604337712357   -2.00905616837707
H         1.97927455336003   -0.78102398198502   -4.01487462231714
H         5.85037783780353   -0.13581137532202   -2.03106461412633
H         4.65563211798825    0.46936212884969   -0.07257560684559
H         5.56899406783774   -0.33379122237738   -4.79739187062992
H         4.29012545307409   -1.23746595894131   -5.38048374829141
H         6.46558278515473   -2.22456451109610   -3.49676190802057
H         3.76630835371742   -3.48363052630306   -3.65665529905213
H         4.80216385325379   -3.14093174518504   -2.32866626087238
H         4.87594629303890   -5.48380412586705   -2.95217131774551
H         6.44215088104291   -4.69818686222941   -3.50800688456687
H         4.03753976782931   -5.67311778724030   -5.18702171303996
H         5.63969178534620   -6.14141151198321   -5.35456070487907
H         4.47794450064687   -3.59144527186269   -6.40062580614864
H         5.81227426484466   -4.56984111565609   -6.94808437081617
H         6.43531711275363   -2.35426424842978   -6.22717740188252
H         7.18822467627657   -3.61597959381390   -5.13427915687842
