35
 energy: -44.224469468835 gnorm: 0.096945038698 xtb: 6.4.1 (025e99ea0bd20707e8cccc6e19fe66a0758c6dd1)
C         0.68406253863828    1.08472194597774    0.05746454947982
O         2.08239456045089    0.83577543544331    0.11550388720582
C         2.73831473845753    0.41182055229794   -1.00730421940728
C         2.16829498264981   -0.05438121584561   -2.19280100418538
C         2.96204412137204   -0.45112365441211   -3.27356489142641
C         4.34392083064128   -0.60084497441801   -3.09222594097650
C         4.94328097667540   -0.16116146588439   -1.90441973373323
C         4.10843307826900    0.22595845319874   -0.84279757784634
C         5.20026201645423   -1.09516398779764   -4.23982161053002
C         5.63224048982286   -2.57350624421732   -4.04896840117823
C         4.46717367477312   -3.44955242706287   -3.55925906384698
C         4.76745647203905   -4.91186987781590   -3.87437700994838
C         5.01787618636325   -5.19953189904587   -5.34199354617592
C         5.27729945444730   -3.87769398132383   -6.03573970864620
C         6.35852993485656   -3.11755708627226   -5.28915192953716
H         0.01574676328142    0.21973571490151   -0.00569553803343
H         0.43206808729825    1.76282748769376   -0.76391445576560
H         0.44616939759547    1.62176480643655    0.98158444847964
H         1.09462716413301    0.08145516110559   -2.28900506085217
H         2.61013214155285   -0.51838752708900   -4.30147861821096
H         6.02786249344071   -0.18957021291257   -1.87388502945051
H         4.58771178766351    0.41314501648763    0.11352124414743
H         6.11599446506992   -0.48699474753936   -4.26756301471053
H         4.68692908234395   -0.80978597965270   -5.16810570659324
H         6.28762234666225   -2.59675667477481   -3.16204717430482
H         3.53647329767869   -3.28109373391684   -4.11199890086707
H         4.25592979943042   -3.35416980554570   -2.48393867189634
H         3.98245437002871   -5.54869018313706   -3.44682002610160
H         5.70475450845136   -5.26302199259578   -3.42335680401478
H         4.27115158784376   -5.73795604699056   -5.93965833275462
H         5.92434882047117   -5.81261735267779   -5.40057131421039
H         4.37078075812413   -3.26763758451734   -6.11271920138649
H         5.59290806908857   -4.14568814782535   -7.05238703561945
H         6.72813733392063   -2.29893449609354   -5.91488569530942
H         7.23789918093447   -3.72522554317187   -5.02854735520627
