35
 energy: -44.219550205894 gnorm: 0.108199207534 xtb: 6.4.1 (025e99ea0bd20707e8cccc6e19fe66a0758c6dd1)
C         0.88540386530950    1.11471433221752    0.11595341030186
O         2.25910203144859    0.75938433536938    0.20179820665006
C         2.78412118382672    0.28419980115165   -0.96833923843213
C         2.03942737226337   -0.25974367433494   -2.01582474520162
C         2.76678094894540   -0.70042506767856   -3.12589210531583
C         4.14559432096501   -0.51864612181881   -3.30114517686382
C         4.82602395600594    0.01705095978877   -2.19956362373740
C         4.17386123975067    0.36276450170156   -1.00413884516380
C         4.89057483783145   -1.03611914535526   -4.51435292396611
C         5.57053793502013   -2.37761678373075   -4.13152076526268
C         4.63817587753622   -3.39589907874666   -3.45442771434948
C         5.09072687017945   -4.83692606511412   -3.67002045347621
C         5.20324546064170   -5.26982068049188   -5.11891644268580
C         5.25252260412631   -4.08545719938174   -6.06268259932099
C         6.12579777968667   -3.03129219941208   -5.40664343600497
H         0.33898484486655    0.16592986138288    0.12435824529936
H         0.59523937007388    1.59332229450548   -0.82464787954658
H         0.49076085868277    1.69422508496088    0.95704196329966
H         0.96463940267672   -0.30770668603396   -2.16748126981169
H         2.30649353330674   -0.96942333443635   -4.07496983960718
H         5.84901719969394    0.37015649290184   -2.28237549616188
H         4.58070895107412    0.90055545306925   -0.15293474162312
H         5.64773720628871   -0.30741981510278   -4.83824759436660
H         4.20705110147037   -1.22476455188285   -5.35332305753921
H         6.38392697798476   -2.18753067247474   -3.41113145382761
H         3.60900127395670   -3.28379923412708   -3.81266801332550
H         4.61041360847555   -3.25792338949907   -2.36345212679070
H         4.48509623610614   -5.46889520346575   -3.00790270020445
H         6.02126592501201   -4.96823536014536   -3.10247346904058
H         4.29147326468764   -5.86019296652042   -5.27650265188724
H         6.08364422204840   -5.89536968445403   -5.30488479770274
H         4.30523224485122   -3.56165122528591   -6.23042965155374
H         5.77926687018606   -4.28337384770934   -7.00521691550898
H         6.46870166755151   -2.28789431311907   -6.13332894445780
H         7.01417066883550   -3.60216445289932   -5.09783208235778
