35
 energy: -44.222362538142 gnorm: 0.086479492497 xtb: 6.4.1 (025e99ea0bd20707e8cccc6e19fe66a0758c6dd1)
C         1.11542697993401    1.37452393281616    0.73386343148141
O         2.29462215843725    1.57873392016213   -0.03325610484763
C         2.65931188516251    0.83459279359028   -1.12133811495863
C         2.06670036258675   -0.30746170607321   -1.66188630610269
C         2.74872416338907   -1.07687403458851   -2.60969485983856
C         3.97399662407003   -0.62756290242311   -3.12127127415639
C         4.62402336340554    0.46690244248310   -2.53556776453119
C         3.96371770020223    1.14470908976024   -1.49708375690907
C         4.66838352846040   -1.40591456383478   -4.21974423314480
C         5.11989466810293   -2.85499850819527   -3.89598572671876
C         4.09542089544899   -3.97812024716632   -4.12772668561215
C         4.83189083904735   -5.27835042115309   -4.43571194377940
C         5.55495603687973   -5.23861975684671   -5.76798667597944
C         6.08264963657808   -3.83370406743130   -5.97677130037728
C         6.41954736676488   -3.17948726499207   -4.64908118087923
H         0.84508103038978    0.32011893317539    0.85209844235502
H         0.38799121309308    2.02402954549065    0.23690119310417
H         1.43790826710196    1.78470306819185    1.69654960393139
H         1.22137527143591   -0.79233648574424   -1.18147890610189
H         2.34238221566424   -2.05404081176290   -2.86465448709519
H         5.61758106809011    0.74298244984684   -2.87421124732912
H         4.43640788596940    2.01394165759257   -1.04954457622926
H         5.52027160041113   -0.82911461413979   -4.60806607415623
H         4.00085740488176   -1.41129220690127   -5.09212180337710
H         5.35612510160385   -2.88669642892458   -2.81900585600424
H         3.32423028716395   -3.86025739781496   -4.89680161087280
H         3.54279248144864   -4.04962298885823   -3.17929378922739
H         4.12929115196835   -6.11032171722164   -4.57264556906850
H         5.49945336262355   -5.48501274142718   -3.58900915957329
H         4.81326300136571   -5.51532645235623   -6.52826703993500
H         6.38999964014592   -5.94754099154452   -5.73436186725796
H         5.42264830916699   -3.19541987132473   -6.57415085125962
H         6.99080307714656   -3.91075309481370   -6.58859009145688
H         6.99302847890906   -2.27915296134572   -4.89159483877654
H         7.02496646523126   -3.89626284475746   -4.07448005792660
