35
 energy: -44.224289205836 gnorm: 0.078272378294 xtb: 6.4.1 (025e99ea0bd20707e8cccc6e19fe66a0758c6dd1)
C         1.46137844889178    0.24059734052454    0.72239190335019
O         2.39763882416633    0.90372152506793   -0.11686861024735
C         2.67862457913636    0.25717064289051   -1.28891214405738
C         3.87661665965584    0.69615228460085   -1.85440251858412
C         4.30292736764203    0.12759232715933   -3.05876608794212
C         3.48242468266972   -0.69153655564778   -3.84660284215135
C         2.19725010288711   -0.95166028152854   -3.35253839104383
C         1.83934627179438   -0.54693884910220   -2.05562673357147
C         4.16743488389108   -1.15701048218674   -5.11496492128503
C         4.95982252548995   -2.46634033719953   -4.85747059259969
C         6.27364154841994   -2.23180231925458   -4.09358295332508
C         6.90254003391382   -3.59359224961212   -3.81455556124777
C         6.31064970756314   -4.80991953419165   -4.49980846813981
C         4.81806164511315   -4.90507517171896   -4.25697945690561
C         4.08282705914743   -3.57703579732717   -4.25849028812405
H         0.49311927388959    0.20635007969708    0.21235499057528
H         1.33637788408950    0.84432209702164    1.62676078877682
H         1.81447217020050   -0.77293423378952    0.93938117006850
H         4.42811841891766    1.39232997062466   -1.22858163949155
H         5.18497542333671    0.47966502991223   -3.59075213228401
H         1.46954710273400   -1.39931292714534   -4.02195002561328
H         0.90348555411897   -0.88973383498099   -1.62440881718545
H         4.88170497693449   -0.39847406055007   -5.46659832686940
H         3.52627945625481   -1.43062617784569   -5.96391534979217
H         5.28576134106383   -2.82902046122695   -5.84687558482953
H         6.22414601867487   -1.65430121332125   -3.16398867949159
H         6.91591191737364   -1.71605917723720   -4.82264642932254
H         6.85628243360401   -3.73051096142148   -2.72658181299637
H         7.95857973052945   -3.46884117363901   -4.08745109294893
H         6.82012275212310   -5.65763885445958   -4.02387721564189
H         6.54229633912400   -4.71820551914719   -5.56701329454471
H         4.66982722612729   -5.35109712544925   -3.26755448786693
H         4.36905678844964   -5.59035550969335   -4.98758670734886
H         3.72849675468608   -3.25932252895965   -3.27268927680369
H         3.19067283009177   -3.74750089321927   -4.87935134429544
