35
 energy: -44.225251236694 gnorm: 0.096466816115 xtb: 6.4.1 (025e99ea0bd20707e8cccc6e19fe66a0758c6dd1)
C         1.04856207723586    0.85080616919532    0.51331634662944
O         2.35350185636581    1.27583492957032    0.14296771776209
C         2.89196522327979    0.69521087906379   -0.97220042921070
C         2.09274096999031   -0.01884181608896   -1.86609001922825
C         2.66059932841136   -0.69761420941714   -2.94881702840534
C         4.04493343148545   -0.60823192973398   -3.15009652493536
C         4.80340733506422    0.30346110608612   -2.40379168634313
C         4.25753902889392    0.81709163752804   -1.21547947040553
C         4.66393163815657   -1.23348484219721   -4.38320128758885
C         5.38299404506358   -2.58417038266288   -4.12411827887319
C         4.43100566721226   -3.70147860720052   -3.66586802625268
C         5.12459873973119   -5.04865515644443   -3.84443286140734
C         5.27430560684865   -5.32055975272196   -5.32868806648081
C         5.43249798298827   -4.05767062061741   -6.15083517122695
C         6.18687611761819   -2.99960741435656   -5.36618452076910
H         0.84369829662526    1.35574439778536    1.46300291334837
H         1.01406840415355   -0.24174959219453    0.56920817470960
H         0.27794947288814    1.22286186399299   -0.16986484618625
H         1.06115644478090   -0.21278423843299   -1.58557435348245
H         2.01567676986444   -1.11096536162286   -3.72224370508097
H         5.85912634471557    0.35144370607175   -2.65120134506533
H         4.70619877742141    1.47979187823954   -0.48143219289746
H         5.52795199330910   -0.61546406404341   -4.66732181492375
H         3.95159566018942   -1.33277144969605   -5.21349177464411
H         6.06059013449436   -2.29927758188212   -3.30168599812809
H         3.51274582766948   -3.61234449441939   -4.25659370564600
H         4.08589144016930   -3.54688995274391   -2.63289451075052
H         4.53009274023790   -5.81108770500882   -3.32497872352931
H         6.09349327894972   -5.12001770026229   -3.33315465750433
H         4.37035166671560   -5.85340943251163   -5.65061954916171
H         6.05375143159174   -6.08567713272105   -5.41845089520466
H         4.47407844642771   -3.74020954608696   -6.57571309911045
H         6.08400424810239   -4.40213948030052   -6.96439663144927
H         6.30938394835485   -2.11991247061049   -6.00604697353301
H         7.11420593393843   -3.50178468146953   -5.05258704947724
