35
 energy: -44.218164549323 gnorm: 0.104614104904 xtb: 6.4.1 (025e99ea0bd20707e8cccc6e19fe66a0758c6dd1)
C         0.85386248379357    1.18484518487787    0.31324400478561
O         2.24133990002168    0.89466992085335    0.20656638877675
C         2.69857330005747    0.42043972427326   -0.99206216386576
C         2.04704191285822   -0.14945310803103   -2.08677593678279
C         2.76359798250969   -0.66508870298655   -3.17128511999596
C         4.16169465321287   -0.57529131675995   -3.21760629329055
C         4.81669772060472    0.00904030519511   -2.12537678658345
C         4.08430499837800    0.54292795954437   -1.05185951513850
C         4.93242556975748   -1.12478512537141   -4.40026336040400
C         5.60651539478894   -2.48326920386588   -4.07064222029419
C         4.54142722177984   -3.50275410233188   -3.63373197600474
C         4.86900313744725   -4.98811365030428   -3.75307365565554
C         5.28929312932563   -5.31539151652604   -5.17279309634413
C         5.39706534376583   -4.05683252974926   -6.00960494901992
C         6.28873255819283   -3.03070152901635   -5.33414546790677
H         0.33781884138107    0.25948559935507    0.58936889196426
H         0.58368292746124    1.55219415976089   -0.68176832762171
H         0.69648259038397    1.98719886128214    1.04157491556177
H         0.96443760795514   -0.23865121947012   -2.10870627457664
H         2.21800443545920   -1.06910839643227   -4.02220748351610
H         5.87957548318619    0.21845628014895   -2.05835211366268
H         4.78033215898039    1.09337173947111   -0.42587994350357
H         5.64594175466556   -0.37308541999550   -4.76775149204891
H         4.25569850462558   -1.40822069757444   -5.21780077862524
H         6.30651930863094   -2.35468480590461   -3.22793480078542
H         3.76618877956948   -3.45853986059856   -4.40648893121351
H         4.12192840650894   -3.32003845595581   -2.63339628119723
H         4.04021747204698   -5.65699822668985   -3.48796779070477
H         5.68372512818407   -5.21457322072984   -3.05293168192326
H         4.58158044113824   -6.03505560863454   -5.60398647750202
H         6.31647854122680   -5.69433931246354   -5.22061006351481
H         4.45495747885906   -3.59456024327318   -6.32362389773147
H         5.79387963763765   -4.17737948769553   -7.02597511066287
H         6.55567974150082   -2.26929811431133   -6.07394230644391
H         7.24853283539015   -3.52581451578077   -5.12411564161898
