35
 energy: -44.227334508908 gnorm: 0.094797869016 xtb: 6.4.1 (025e99ea0bd20707e8cccc6e19fe66a0758c6dd1)
C         1.66154023263435    1.24202803998879    0.92446219920228
O         2.87247752156963    1.28317321100248    0.18108253622450
C         2.94899098481844    0.75957570607475   -1.08013053017179
C         1.94989401450661    0.00760259969032   -1.69981666896995
C         2.29835907080672   -0.73130675770827   -2.83475186217623
C         3.57685164178874   -0.67589652435610   -3.40682699898325
C         4.55035518340095    0.14489426744415   -2.82199277849050
C         4.20422886503068    0.87379873648133   -1.67187571143349
C         3.85237821742053   -1.65135400381726   -4.53253350170991
C         4.64962566367985   -2.85972476442969   -3.97328151316389
C         3.94282964898496   -4.11273920803521   -4.51646383488908
C         4.92864590057485   -5.27720624421033   -4.52138784904185
C         6.16368752147327   -5.06878034089903   -5.37613261001261
C         6.47500520689359   -3.59769078970235   -5.56272435739458
C         6.15706666861745   -2.86503144893351   -4.27183856273680
H         1.92362668245247    1.77298169698373    1.84545908456343
H         1.37248390867751    0.21574884108675    1.17182679927696
H         0.75043994139467    1.70732862531529    0.53408112229878
H         0.97387078732655   -0.05030707112619   -1.22600822525623
H         1.52571422164230   -1.28751270401859   -3.36260409509065
H         5.44291215372161    0.26862981646143   -3.42704488174045
H         4.93148931253766    1.53388951934848   -1.20855620126845
H         4.44864878597383   -1.12736251204027   -5.29351947405895
H         2.89525427814644   -1.95505579289966   -4.97788915417242
H         4.47625400985460   -2.82987818423829   -2.88436155546241
H         3.59847420426788   -3.94484605104386   -5.54278448041220
H         3.04310362942586   -4.40933427455558   -3.95739297897551
H         4.40874680505627   -6.15606121980569   -4.92374619513801
H         5.39417110633609   -5.45977654814977   -3.54403990180307
H         6.06238781013477   -5.46050921189159   -6.39642092535716
H         6.94280681466440   -5.68357698741530   -4.91137893909815
H         5.86733793293051   -3.13321751467819   -6.34686455939143
H         7.54029537945829   -3.41618157446842   -5.75563032051404
H         6.50029384990255   -1.82697630548032   -4.21769116594163
H         6.58388284615068   -3.35916174371374   -3.38632787875231
