35
 energy: -44.215262909188 gnorm: 0.095157980626 xtb: 6.4.1 (025e99ea0bd20707e8cccc6e19fe66a0758c6dd1)
C         1.07421699920264    0.84361524041941    0.54529404459637
O         2.31046093998554    0.97396453155126   -0.14418790449369
C         2.62215529337064    0.27236962356989   -1.27612354789481
C         3.89235451516390    0.63289636709405   -1.72810107771560
C         4.34395772960122    0.25212529375969   -2.99560287151514
C         3.64071563984753   -0.74894188135381   -3.67985327781917
C         2.54767490016930   -1.36008788589848   -3.05120371099192
C         1.96281421352773   -0.77369159817964   -1.91632405510222
C         4.04307255194177   -1.30877219627114   -5.02868472844157
C         4.97726747168896   -2.53828676867246   -4.87344311611157
C         6.13510075140541   -2.33061681442268   -3.88301486112660
C         7.02240161819746   -3.56405772948046   -4.02144206298809
C         6.39634199732881   -4.69410760516695   -4.81541586646422
C         5.00702412995453   -4.99341426491632   -4.29001027246713
C         4.14989927272141   -3.74595541597702   -4.40595924195325
H         0.65992989178659    1.83409376954647    0.76013080014736
H         1.41914207344996    0.37314279566900    1.47140104469850
H         0.30946060576749    0.24374935953630    0.04099814899614
H         4.32230968983835    1.47210460701406   -1.18834425786859
H         5.18326639325226    0.76775932535362   -3.45891229764252
H         1.88533048732974   -2.05093265982173   -3.56315085796759
H         1.08367718150431   -1.16192474101549   -1.41067032976234
H         4.53574739084499   -0.51581396486921   -5.60979923943195
H         3.14959102208763   -1.76601664597767   -5.47509367565858
H         5.42564158693777   -2.73094405316834   -5.86265444308874
H         5.68104451860550   -2.21292599604517   -2.89302260758955
H         6.64761784603877   -1.40586812978382   -4.18666246400792
H         7.35830831216597   -3.88019042526278   -3.02555040795857
H         7.94897497300188   -3.24144712359533   -4.51402592297229
H         7.16091932251993   -5.48012544264854   -4.86336229274433
H         6.25692731048544   -4.34499619507402   -5.84482469380839
H         5.05698656038696   -5.41124677490771   -3.27867919630179
H         4.41908303597245   -5.71893827468406   -4.86702122583878
H         3.74947032635688   -3.48035283881835   -3.42239061014073
H         3.30891120307154   -3.91757453310477   -5.09425562902268
