35
 energy: -44.217902448570 gnorm: 0.076822961104 xtb: 6.4.1 (025e99ea0bd20707e8cccc6e19fe66a0758c6dd1)
C         2.28406592080040    1.99393944398962    0.93458108065292
O         1.73012615838573    1.48806699221414   -0.27286215873987
C         2.31710051917070    0.55689726421711   -1.08468179043726
C         1.55635758388522    0.19420860927019   -2.19706499620486
C         2.16400662291583   -0.50040716516937   -3.24766693237882
C         3.51004500614221   -0.89160620583469   -3.25291208077274
C         4.16897461212153   -0.68377830196457   -2.03387266820736
C         3.60968215156749    0.05090845101357   -0.97495729496977
C         4.13778993670197   -1.56227206782897   -4.45739990532174
C         5.16138457058966   -2.69668214593264   -4.18556545783067
C         4.34016001233605   -3.98940317109228   -4.04730696621494
C         5.34147217876619   -5.13598207724576   -3.94448593594899
C         6.35155669610238   -5.19768954179712   -5.07376855158912
C         6.25835440437593   -4.04735161200574   -6.05554023057242
C         6.17117614755623   -2.70936551018989   -5.34388448307361
H         2.47794903157651    1.21993688345729    1.68435820049951
H         1.44662656973559    2.61402535817581    1.26951480065423
H         3.16573478871164    2.61265631316240    0.73746383172175
H         0.53125718880848    0.53582581339337   -2.31080242698513
H         1.53937134851286   -0.78093353404703   -4.09389907651336
H         5.12415345730614   -1.11667075434237   -1.75406202953435
H         4.18692546446009    0.17861535027849   -0.06403815100198
H         4.52419809118017   -0.87632712548061   -5.22510661268600
H         3.26665315494805   -1.93398707821043   -5.01382720253222
H         5.73226286450613   -2.53194325921200   -3.25623543487768
H         3.57451457698866   -4.05738546544225   -4.82786338666204
H         3.83847651103068   -4.02511706360036   -3.06900540273615
H         4.83889608235180   -6.10601167411176   -3.83944677811383
H         5.82641380928399   -4.89414695606983   -2.98970741028285
H         6.28551758768051   -6.14066353879144   -5.63156803486216
H         7.31515180334727   -5.12396573992160   -4.55700261308209
H         5.32123754788493   -4.05512383844644   -6.62265784282748
H         7.18727217181033   -4.14146161447814   -6.63282399669964
H         5.89499410124564   -1.92722916317216   -6.05822441091405
H         7.13578718724003   -2.44839155211208   -4.88357577643879
