35
 energy: -44.216171157709 gnorm: 0.113057728943 xtb: 6.4.1 (025e99ea0bd20707e8cccc6e19fe66a0758c6dd1)
C         1.00981187343097    1.11592734015194    0.36338783847747
O         2.38513584099181    1.29488592180757    0.05172585397135
C         2.82221048228262    0.49498302560330   -0.96797419532620
C         2.05102658221206   -0.32785822330093   -1.79009152512778
C         2.63897536446655   -0.81021676210655   -2.96360730782208
C         3.97202495998649   -0.51470321938142   -3.28067831707456
C         4.77446964824801    0.27507550527912   -2.44655013536555
C         4.11518280075711    0.84749751667114   -1.34584657332300
C         4.62128127885717   -1.31002986166569   -4.39448668450170
C         5.37993799799471   -2.58346124282757   -3.93477083466804
C         4.36752777282377   -3.72059460070696   -3.71888639262812
C         4.94050362473178   -5.11271329817082   -3.96697026439406
C         5.29990413864706   -5.24893939901022   -5.43381432132796
C         5.86674006479005   -3.97014322129551   -6.01623772089660
C         6.43676365521633   -3.05969279118694   -4.94366423707572
H         0.87377863106034    0.06001723980373    0.61909308681713
H         0.13876804105157    1.45714421003915   -0.20480709931011
H         0.84861155723472    1.55251676504801    1.35455376957150
H         0.99571612289176   -0.48507886132409   -1.58497980667839
H         2.13436386650352   -1.41661034206145   -3.71369207332963
H         5.79118703272797    0.57657868389277   -2.67771689449295
H         4.56286792398709    1.58595545726386   -0.68740107138165
H         5.34486413716743   -0.63892616644453   -4.87951554976605
H         3.81406085455847   -1.46111211114842   -5.12402901316256
H         5.77662554778637   -2.34540978608634   -2.93343886662505
H         3.57985281660773   -3.49090741073917   -4.44477537143491
H         3.94449229103493   -3.64401194299872   -2.70635893983361
H         4.10952472123159   -5.80426036437486   -3.77773471580819
H         5.76646231149942   -5.19799247919388   -3.24879594639525
H         4.44159481990282   -5.58792086000502   -6.02803487639275
H         6.04095271363191   -6.02640519582126   -5.65151068816562
H         5.05827934614764   -3.42373107241808   -6.51392821229732
H         6.65231995315628   -4.17707065606063   -6.75451052445571
H         6.79059390354900   -2.17470527211235   -5.48208467310476
H         7.15335319737302   -3.66667924119817   -4.37048638844452
