35
 energy: -44.220447668796 gnorm: 0.086056953422 xtb: 6.4.1 (025e99ea0bd20707e8cccc6e19fe66a0758c6dd1)
C         2.28819270800667    2.04068278708295    0.79385148270477
O         1.58324770640525    1.48076465631205   -0.30624833615855
C         2.21312990367723    0.53558687570762   -1.06818958116446
C         1.49383419006044    0.14573100096036   -2.19880681484644
C         2.16360277460119   -0.57616995296794   -3.19166224285528
C         3.47935078814285   -1.02818936214354   -3.02028797783735
C         4.14860133299640   -0.60824289208166   -1.86305575888880
C         3.54050806030134    0.16858694495023   -0.86273960009891
C         4.21602500365433   -1.42966536118624   -4.28154743963195
C         5.23134423156761   -2.60187184353500   -4.22167282884646
C         4.53591855905332   -3.95773680329902   -4.01511494632211
C         5.43313955191316   -5.18964655514366   -3.94276684131675
C         6.27359026069714   -5.29639986592273   -5.20038526559612
C         6.10840808116830   -4.09657691314649   -6.11086830976745
C         6.22967493083522   -2.77314292499693   -5.37733059401988
H         2.45723820726257    1.26511462884840    1.54800929640410
H         1.51825528243725    2.73757820654044    1.13957527531010
H         3.17139605594639    2.55744085149917    0.40408396479195
H         0.49255701396340    0.55163665807561   -2.31349745085338
H         1.62697504348165   -0.86920300691523   -4.09229280591060
H         5.15312024149384   -0.90180962462147   -1.57527663678802
H         4.08121714728722    0.39523457453914    0.05134852991588
H         4.64417839538220   -0.49935378453132   -4.68206006036862
H         3.47931910440934   -1.63729023513816   -5.06946811771536
H         5.84378416973325   -2.41520427438670   -3.32347031514700
H         3.94561993164674   -4.15309526367759   -4.91704922911220
H         3.94506851222925   -3.98111119576320   -3.08754520738376
H         4.70048564912871   -6.00555498107060   -3.98842944820385
H         6.05644853832047   -5.25125455805601   -3.04113221419049
H         6.00546078800433   -6.20896367492877   -5.74814001462055
H         7.33960775975429   -5.42156114670942   -4.97916341292811
H         5.16144351885532   -4.04623754913904   -6.65913362816318
H         6.89936276128081   -4.20926860834226   -6.86365827472670
H         6.10544688165754   -1.97230362799119   -6.11321042581966
H         7.22436335906653   -2.75834116999892   -4.90739250904249
