35
 energy: -44.223754942392 gnorm: 0.092187227456 xtb: 6.4.1 (025e99ea0bd20707e8cccc6e19fe66a0758c6dd1)
C         1.11091889659801    1.82964312206428    0.15661950898031
O         2.44948649355103    1.36496721032705    0.27058647166814
C         2.91623900577766    0.55868247168901   -0.73076965632171
C         2.08892806798573   -0.03820375563065   -1.68311030241871
C         2.63166654281766   -0.67977851111253   -2.80083551019659
C         4.02253153845411   -0.82229281294382   -2.90117385147321
C         4.83341616530340   -0.44021817593289   -1.82417670528118
C         4.28171239876696    0.28728009034171   -0.75635477047525
C         4.50212538340113   -1.29200069173082   -4.25911773455579
C         5.10965905964428   -2.71956984356729   -4.29752770617023
C         3.98961055361606   -3.77305667227953   -4.31512546650553
C         4.71503605191853   -5.11269450630983   -4.23164057711084
C         5.94604372539337   -5.25075093504808   -5.10623665506378
C         5.99085816039191   -4.16509974546281   -6.16226355412986
C         6.04117641209045   -2.79172563142071   -5.51761451881116
H         0.91055104615513    2.64049626135437    0.86457873688375
H         0.45275720308239    1.01576363561606    0.47664321094233
H         0.91938208343308    2.30021110568975   -0.81337285728830
H         1.00787026135311    0.02634381599137   -1.59583506835119
H         1.97622161129544   -1.27732845814220   -3.43194494178576
H         5.91487106345042   -0.47664818282746   -1.90893904353194
H         4.88560597323933    0.47860518323278    0.12568822688103
H         5.27012850139305   -0.56109216996468   -4.55092121870422
H         3.69812987421208   -1.23278781056765   -5.00527303161122
H         5.70501389663486   -2.88853271126686   -3.38445630172971
H         3.40862980323545   -3.67904519710828   -5.23909844313704
H         3.21139847534038   -3.60955678972124   -3.55506657730773
H         4.02653240237190   -5.95843382492239   -4.35517642468700
H         5.01205857283215   -5.26656814266524   -3.18600432613611
H         5.86515511630058   -6.18395886847306   -5.67832176477055
H         6.94055863917450   -5.23072171879186   -4.64630548494024
H         5.13200744202457   -4.27345618731771   -6.83346033680043
H         6.90863522226962   -4.39282524699052   -6.71978289808459
H         5.59017321882893   -2.06514939175552   -6.20097270533301
H         7.07482370998303   -2.49818883580113   -5.28123477713671
