35
 energy: -44.218547439099 gnorm: 0.109654509014 xtb: 6.4.1 (025e99ea0bd20707e8cccc6e19fe66a0758c6dd1)
C         0.80218189430754    1.04584100691376    0.21704547470740
O         2.20245584772829    1.23397402752732    0.06047532213919
C         2.75883543396689    0.49741823758981   -0.94877906779101
C         2.02013069689074   -0.18311235370543   -1.91772834116765
C         2.76133970098096   -0.73540784069893   -2.96704801049499
C         4.14505956315399   -0.55278747637308   -3.09686584152684
C         4.85487280379299    0.14647574090047   -2.11165831380343
C         4.14404591840190    0.62927716470045   -1.00012676433980
C         4.84208735139052   -1.12200991471145   -4.31538354518433
C         5.50844893332890   -2.51550819401464   -4.16488123849406
C         4.52350975386391   -3.60099257703067   -3.69983146413967
C         5.16157768314773   -4.98619249615770   -3.74378489262145
C         5.16206674347039   -5.34509697855551   -5.21706188670602
C         5.46856210522754   -4.16199759331859   -6.11270471989448
C         6.23222196158843   -3.05514451957706   -5.40845998137086
H         0.68058230434893   -0.04083281694841    0.27352468011640
H         0.11820373737681    1.52989946491815   -0.48712289464323
H         0.58132727453724    1.50034654329119    1.18846388504071
H         0.93626409877935   -0.21313096381619   -1.98702058181785
H         2.09652042262227   -1.15403765256274   -3.72053159750762
H         5.90849983867710    0.35115687513057   -2.27300328864884
H         4.60976352095218    1.27227265023486   -0.25921076945325
H         5.65575943483024   -0.39946653662731   -4.47373168932275
H         4.33988384625325   -1.09900945340530   -5.29207452820193
H         6.34691000850899   -2.38891717602161   -3.45943601912267
H         3.70174602803728   -3.38022653119403   -4.38980942302281
H         4.16250006950471   -3.36149299419663   -2.68871934284325
H         4.54236274079944   -5.67929852539265   -3.16004671278401
H         6.16580862035365   -4.93861667075647   -3.30275041834255
H         4.30739118066778   -5.88243142113893   -5.64776220549046
H         5.94683498527793   -6.09872954117110   -5.34811352279852
H         4.57791738561756   -3.78767618011077   -6.62894716013721
H         6.03376553368830   -4.52716118529274   -6.98000057012697
H         6.35877599355618   -2.26786595375719   -6.15844121723400
H         7.21216691595448   -3.45660857072781   -5.11013051807776
