35
 energy: -44.216185672011 gnorm: 0.107965629745 xtb: 6.4.1 (025e99ea0bd20707e8cccc6e19fe66a0758c6dd1)
C         0.84480889233235    0.98163521626967    0.38063478075087
O         2.20722989317824    1.20732548270000    0.04366551346021
C         2.79443822521865    0.65271185294493   -1.06008135696392
C         2.14329242147037   -0.26521157283825   -1.88536612289402
C         2.78025802987726   -0.79139062613771   -3.01359626094198
C         4.14034259708199   -0.48450016164011   -3.15806671689004
C         4.83604442167024    0.33608716562050   -2.26025096188887
C         4.16481131440271    0.88135014649192   -1.15299813013640
C         4.83868682276119   -1.12746899231889   -4.33855548241900
C         5.32149324869253   -2.58039156295372   -4.08470491208957
C         4.22531187304644   -3.62898890733886   -3.83274693309275
C         4.91363507689573   -4.98972659188265   -3.88219917232516
C         5.29229066349602   -5.38569867895770   -5.29612414233551
C         5.67272358237732   -4.13650058115003   -6.06463865346481
C         6.29685054528558   -3.09298163112355   -5.15590629988252
H         0.60729275320874   -0.08081268232870    0.49736908713862
H         0.22112874892313    1.58420591503008   -0.28714020405200
H         0.80594537402307    1.41804299390817    1.38415042527843
H         1.11011991524729   -0.54113447855734   -1.69329728420541
H         2.22947345260704   -1.36569300571461   -3.75641939802585
H         5.88564389741775    0.59803268427917   -2.34846640954016
H         4.76286172014078    1.66862905304566   -0.70375409246719
H         5.80468972228102   -0.63145212355777   -4.51179226607267
H         4.23171658369906   -1.06817335874171   -5.25219316457980
H         5.81009214657965   -2.63100185288883   -3.09707900502284
H         3.52476781770150   -3.61581989674944   -4.67486773951428
H         3.76726847339658   -3.35658825571578   -2.87044246321062
H         4.26133477064961   -5.80385047615737   -3.54120065804793
H         5.82390510333512   -4.89971875643556   -3.27510633676141
H         4.45588523190079   -5.90177192292295   -5.78479145928284
H         6.04838632525565   -6.17012089759292   -5.17780720853001
H         4.83891768935345   -3.64654702980691   -6.57901599045178
H         6.44759737740851   -4.29381347009326   -6.82610087424786
H         6.92169468167762   -2.38145577945103   -5.70508394085138
H         7.06534712107877   -3.72150879279743   -4.68174115226932
