35
 energy: -44.228998631675 gnorm: 0.081782197500 xtb: 6.4.1 (025e99ea0bd20707e8cccc6e19fe66a0758c6dd1)
C         1.02898139069864    1.50775426562855    0.53278542854280
O         2.39238270468746    1.29792330413306    0.18958987082816
C         2.76395930226573    0.54908251825815   -0.89292357715998
C         1.95654883411967    0.04944939093875   -1.91572575747556
C         2.47432540035743   -0.68024201853694   -2.99041208574932
C         3.86043433628689   -0.78220017090014   -3.17259350016829
C         4.65951411505866   -0.24681497241715   -2.15363719542536
C         4.14019206021654    0.36752072331462   -1.00178186724481
C         4.58519954360225   -1.25376608073670   -4.41637334693796
C         5.39039296974622   -2.56998668133079   -4.24978088721071
C         4.42316433584117   -3.68571311969514   -3.82050694322009
C         5.10376954212402   -5.05079458983434   -3.78629381661060
C         5.68439739734258   -5.36101781115221   -5.15230648665480
C         5.74584164288204   -4.22225786415082   -6.14994872469364
C         6.09180297283965   -2.85566503597193   -5.58692513781497
H         1.08658784834813    1.87019498942566    1.56436410856921
H         0.44248045865268    0.58618014279185    0.60141188414519
H         0.54309416243264    2.22501945728299   -0.13687867408625
H         0.87921013704119    0.19011533875534   -1.92059869730199
H         1.87229811099134   -0.91051242222685   -3.86763029289619
H         5.72140437370078   -0.39347193964241   -2.32374688091121
H         4.78346375803050    0.71937552255010   -0.20072487612827
H         5.31045323134099   -0.47971318990239   -4.70629494733223
H         3.89355938095646   -1.35193932297919   -5.26411066849129
H         6.18103846454055   -2.50908913862950   -3.48305641893031
H         3.53875284241932   -3.66210527243552   -4.46654241539068
H         4.24351153088861   -3.43978765947451   -2.76349166147829
H         4.32691280747237   -5.77437287189066   -3.50790297750676
H         5.88128134140061   -5.06876138147754   -3.01143432035242
H         5.06781550066176   -6.14978244497058   -5.60217147000723
H         6.70051180291722   -5.76135126705257   -5.06151880623352
H         4.87043532423219   -4.12056119593073   -6.80048109143747
H         6.52554878248595   -4.39697806032890   -6.90263131869033
H         5.90608009011293   -2.07995472278661   -6.33664231153556
H         7.17939361020644   -2.88308495281124   -5.42303272371156
