35
 energy: -44.217407394294 gnorm: 0.099883363410 xtb: 6.4.1 (025e99ea0bd20707e8cccc6e19fe66a0758c6dd1)
C         1.20162378753193    1.09219010610557    0.52933556404982
O         2.39041222339391    1.52776677999634   -0.11698509413594
C         2.81098836089213    0.86637922009705   -1.23785497252996
C         1.99422354252158   -0.08889704573683   -1.84449467675882
C         2.53520390058832   -0.85786098430910   -2.87964083252178
C         3.85909020629116   -0.71875341890880   -3.31879644885720
C         4.60084727262258    0.30391098338639   -2.71266797549545
C         4.12560167996194    1.08139576646339   -1.64330672383217
C         4.54775756569436   -1.72102020612343   -4.22203831969684
C         5.14654323243110   -2.95584245771615   -3.49733431233668
C         4.31616810006238   -4.24730511678726   -3.58250570530126
C         4.69833212813176   -5.18529767693471   -4.72354120576927
C         5.18683207787166   -4.47702624133426   -5.97217131068424
C         6.41441612205050   -3.64342289589827   -5.66560561697786
C         6.48001887842701   -3.25790858940322   -4.19886236887106
H         1.35003510080436    0.44708409503642    1.40148731156799
H         0.34217999797186    0.64179501145731    0.02288474912331
H         0.79029194220106    2.07258237539663    0.79133343272284
H         1.02618459787951   -0.44125403919364   -1.49922018251084
H         1.92058717495030   -1.64528220945921   -3.31229219220093
H         5.62393313727207    0.42828189374364   -3.05308490080091
H         4.81516832194160    1.80121697104235   -1.21243800165422
H         5.40985443819961   -1.24264858325464   -4.70902384079208
H         3.76445566521031   -1.97152876601943   -4.95028708725341
H         5.29210931704565   -2.71675114559561   -2.43040363128464
H         3.25374756411143   -4.00944334646126   -3.70410846966033
H         4.44463371064511   -4.86017236371504   -2.67811304256756
H         3.82407420707144   -5.81933268294676   -4.91910723939902
H         5.53416500253634   -5.83588652532255   -4.43479876328331
H         4.40191641249974   -3.77999448718455   -6.29272632617747
H         5.22989637966134   -5.09503528964416   -6.87616691083912
H         6.49588273962518   -2.77617083719007   -6.32976512444461
H         7.32108077951713   -4.23834414439702   -5.83598567663980
H         7.18080932327667   -2.42856298227993   -4.05967208127811
H         6.91331585741046   -4.11719292093000   -3.66561745793613
