35
 energy: -44.213196942601 gnorm: 0.109723090387 xtb: 6.4.1 (025e99ea0bd20707e8cccc6e19fe66a0758c6dd1)
C         0.73673854441478    1.48212926394065   -0.10501124499907
O         2.11108501993952    1.12993372686704   -0.01666279007292
C         2.71658255510187    0.52068971204103   -1.08102248058159
C         1.99083069773341   -0.05109802862432   -2.12697290058659
C         2.68556716222807   -0.73039119858008   -3.13265420500235
C         4.08059749130188   -0.86298298303519   -3.09810968334414
C         4.78663733635921   -0.21602872214991   -2.07517483883167
C         4.10438575640421    0.42185949036473   -1.02564833862700
C         5.01276208954190   -1.36291844845481   -4.18244405717520
C         5.70524190081538   -2.69103437518890   -3.77611170440788
C         4.75222118210191   -3.80622027046348   -3.31484739210671
C         5.01696252311158   -5.10371905010146   -4.07264046826227
C         4.72355563178015   -4.81331716056535   -5.53172816587107
C         5.61345794852306   -3.71534394550855   -6.07795919411843
C         6.51339791496965   -3.11764107862952   -5.01160085696929
H         0.07520985167420    0.62598677378545   -0.27304749382920
H         0.51213235948460    2.20043235718744   -0.89973417066863
H         0.56624402179636    1.93053916003689    0.87929864229979
H         0.91282390678802   -0.05480544640486   -1.99148509128158
H         2.02901728832490   -1.19033039328787   -3.86911282799765
H         5.86572164820791   -0.32246979545066   -2.02717643279461
H         4.69310218658135    0.91144997262826   -0.25557904915591
H         5.75940151625738   -0.55575454334840   -4.19732132602085
H         4.42349472393088   -1.64734568934890   -5.06478627689865
H         6.49055686374263   -2.57131751904064   -3.01083821948918
H         3.70086552246270   -3.57449043401364   -3.51746874217149
H         4.90953078543809   -4.02528736834078   -2.24840514709088
H         4.37226107026088   -5.91690810975306   -3.71534931756676
H         6.07073952999521   -5.38474781999190   -3.94681720466623
H         3.69214129380319   -4.43799848370225   -5.52706540351050
H         4.63808166709455   -5.81983178459442   -5.95672261009021
H         5.16780695201351   -2.89605304282901   -6.65244017929919
H         6.26104620241823   -4.19739523417717   -6.82177198464885
H         7.21776413267492   -2.37366660210436   -5.39717255015672
H         7.12837263289350   -3.98506331731113   -4.72902214609513
