35
 energy: -44.217389419685 gnorm: 0.109074627466 xtb: 6.4.1 (025e99ea0bd20707e8cccc6e19fe66a0758c6dd1)
C         0.76604166503439    1.43169606125963   -0.19582321201365
O         2.14734788218025    1.12780496311315   -0.05327945161202
C         2.72130237538991    0.36051949281795   -1.02924889187248
C         1.95264510440971   -0.16388652431298   -2.06936119379030
C         2.66399404611584   -0.75116812841712   -3.12034923613250
C         4.06423344096565   -0.80834060603224   -3.08961685033718
C         4.81407495299405   -0.22694809759589   -2.05852120609097
C         4.11057368020382    0.29663060619757   -0.96087564810966
C         4.89938341405960   -1.36022689770008   -4.22653961915776
C         5.75075958738809   -2.60053265083115   -3.84532259062059
C         4.92828569042088   -3.73054202794344   -3.20402053502011
C         4.91091507803850   -5.00630047897101   -4.04066863207701
C         4.60216549796724   -4.66545063536434   -5.48560906279809
C         5.70574481537806   -3.83820426254091   -6.11299712217989
C         6.53466573037795   -3.13165436468595   -5.05567119470317
H         0.26676699877686    0.57060489262325   -0.65198454897713
H         0.63898069596568    2.42307471370089   -0.64193494892279
H         0.43120241317918    1.51758749825391    0.84317202824823
H         0.87315506667956   -0.08127857304044   -2.16072047362409
H         2.12960941217944   -0.99908801174091   -4.03574090436162
H         5.89073828236782   -0.29704360266358   -1.94045683267016
H         4.59174704954782    0.59624956641153   -0.03459639359405
H         5.44163407917043   -0.59037977221800   -4.79443480157290
H         4.10479494123979   -1.59077393889592   -4.94913210383347
H         6.48026131933726   -2.25179249080698   -3.09505414184791
H         3.95326035386926   -3.32046850597451   -2.91894484410896
H         5.36726730951389   -3.95136160131470   -2.21986118842716
H         4.11799431995782   -5.69186202839503   -3.71531435061180
H         5.85358086349279   -5.51368937970877   -3.79737382679770
H         3.62133497635716   -4.18045842511339   -5.57195389117254
H         4.52861494992205   -5.56952241347243   -6.10062312849909
H         5.31047607420551   -3.09959364770635   -6.81875046231465
H         6.41631826296237   -4.46372391567696   -6.66870567576965
H         7.20855374864443   -2.39072826442525   -5.49748424490000
H         7.15747593932493   -3.94672124441900   -4.65787803832500
