35
 energy: -44.223823284274 gnorm: 0.089414969077 xtb: 6.4.1 (025e99ea0bd20707e8cccc6e19fe66a0758c6dd1)
C         0.74465963032747    0.87473383991416    0.17209365395897
O         2.15088286652266    1.00538713583374    0.01041090436602
C         2.76342826541799    0.47614103613498   -1.09201995321177
C         2.12097600595718    0.37445248632960   -2.32676033405256
C         2.82195929037204   -0.26665733529647   -3.35296377040020
C         4.16994441793220   -0.63340005141274   -3.23755398025953
C         4.76336947161621   -0.54651467940031   -1.97116723138613
C         4.00433370129838   -0.11533405078022   -0.87033916580434
C         4.83554470956524   -1.12666000097774   -4.50574884340805
C         5.71265269326924   -2.38142973937218   -4.25126766059678
C         4.94394715888183   -3.36342018560244   -3.35157915618533
C         5.44340125737566   -4.79095949774230   -3.55287128983251
C         5.20310251464772   -5.28492163537714   -4.96624162025185
C         5.04817535094053   -4.11693881315519   -5.91895004980383
C         6.00143205664431   -2.96858622197575   -5.64173399023320
H         0.45345991297424   -0.18072293410041    0.16501691518816
H         0.32875240164290    1.39516832659342   -0.69633073934914
H         0.40060160333061    1.40027047618762    1.06900005257235
H         1.16393175021283    0.88037882879921   -2.41935711970481
H         2.39896076828232   -0.30054372801339   -4.35540931941671
H         5.76806212562000   -0.79389764850349   -1.64337029245357
H         4.30583788366890   -0.03624278325361    0.16991676093147
H         5.42683021127697   -0.31974220539232   -4.96233448824196
H         4.03151483361755   -1.39544872935268   -5.20428392080341
H         6.60090391335791   -2.07021679223314   -3.67607074183946
H         3.86415781293435   -3.26035124948106   -3.50498911286120
H         5.10377114426238   -3.08592117040498   -2.29920737861273
H         4.93944755663309   -5.33399077952617   -2.74310523018752
H         6.50181493651865   -4.80922045892573   -3.26187014828864
H         4.32451001550876   -5.94023786080378   -4.90847266812162
H         6.04023180722089   -5.88791098294126   -5.33585785266503
H         4.03708667157223   -3.69556254435269   -5.91541175737701
H         5.31199198882759   -4.43970267820629   -6.93444289951404
H         5.85382801191000   -2.17602740555929   -6.38224657698701
H         7.05709961550848   -3.26700678446872   -5.72526329065589
