35
 energy: -44.218986946602 gnorm: 0.109891830849 xtb: 6.4.1 (025e99ea0bd20707e8cccc6e19fe66a0758c6dd1)
C         0.83304680694972    1.10059969449149    0.15478294593730
O         2.14016606451443    0.54243330139687    0.17855059567195
C         2.81921808600387    0.32393519054246   -0.98841727042877
C         2.10806282454614   -0.20540095473052   -2.06625338618212
C         2.65890966557381   -0.61251700019901   -3.28539945228391
C         4.05099581160364   -0.49375721448441   -3.39887108249557
C         4.78591580983969   -0.07162145527178   -2.28301635806956
C         4.20972906005035    0.31113366278645   -1.06015831180402
C         4.90232802186740   -1.05135503200254   -4.52090739399863
C         5.65955052716207   -2.35121963741754   -4.13947290497196
C         4.75222673862935   -3.34591631234372   -3.39650930932916
C         5.06243355745268   -4.83017550325623   -3.56558854485409
C         5.12186346994036   -5.20218178963989   -5.03441024173498
C         5.28202472867345   -4.01205626845142   -5.95841741981411
C         6.25618363660918   -2.98822346976550   -5.40430408632422
H         0.12408761506392    0.26651693727580    0.13199754841584
H         0.59808880817137    1.66835200667997   -0.75100061003694
H         0.67352138311891    1.75251368245818    1.01997977862858
H         1.02845226701776   -0.29690179291282   -1.98539562140914
H         2.16425621323747   -1.05819045998551   -4.14659991097397
H         5.86585515935073   -0.14655175990336   -2.36158447658991
H         4.81651517757155    0.64370258670704   -0.22319887395404
H         5.64729409301189   -0.31570026191434   -4.85712597942852
H         4.22798745974360   -1.34948688294692   -5.33518307363010
H         6.53913409774617   -2.15157107569383   -3.50451745978928
H         3.72858184714059   -3.16059064242656   -3.73988721221893
H         4.79706740882639   -3.02126330598336   -2.34644954555574
H         4.33159599661444   -5.34495470698559   -2.92883725361293
H         6.02978702494232   -5.10107589913401   -3.12276252175357
H         4.23468511954390   -5.79251712214872   -5.29731736642458
H         5.96139250244622   -5.88969548197898   -5.18775198775326
H         4.35751078844819   -3.42970504553999   -5.88088146123186
H         5.44381647064818   -4.17111197132401   -7.03244077787857
H         6.48141487576390   -2.24415632312427   -6.17497281637900
H         7.12812939733899   -3.64619432967717   -5.27296137621138
