35
 energy: -44.217941665115 gnorm: 0.101262052859 xtb: 6.4.1 (025e99ea0bd20707e8cccc6e19fe66a0758c6dd1)
C         0.85026386022805    1.21887849909677    0.07135075576976
O         2.13534862639197    0.62402879414992    0.19539252512288
C         2.72292851815460    0.24124480793947   -0.97887038373741
C         1.99150168205089    0.09698386743976   -2.15864698392231
C         2.69873234157996   -0.35330731763743   -3.27782324350204
C         4.08581302769857   -0.54348670243373   -3.34654368891746
C         4.75019114817220   -0.37490166007372   -2.12440680750293
C         4.10556793744599    0.07748357458766   -0.96092798148297
C         4.78694640540560   -1.04195413477649   -4.59337548734246
C         5.51610800848460   -2.37304360004582   -4.26926073877333
C         4.65523775282446   -3.35971183896030   -3.46300952292032
C         5.28049289066762   -4.75006838205893   -3.52470312825599
C         5.34631234652652   -5.29540333541378   -4.93808041591407
C         5.30162837575521   -4.16754973251372   -5.94891632921896
C         6.19273567979023   -3.03073901894959   -5.48217235624605
H         0.12688976301989    0.40077094383888    0.15051073884904
H         0.94388527264078    1.79410774706817   -0.85511465057244
H         0.80627567086311    1.90765140279716    0.92144645575751
H         0.92780033092318    0.26359868385031   -2.30441484473320
H         2.04640593137436   -0.43432045246569   -4.14550996003999
H         5.81126888337853   -0.50766110742756   -1.93854269790445
H         4.73202105039108    0.00541555306552   -0.07681527056723
H         5.41274640594291   -0.17969955873277   -4.86558263626168
H         4.14458439668772   -1.12164567724674   -5.48089054285405
H         6.25930722634816   -2.11884899088631   -3.49483498444487
H         3.62754957321318   -3.37912847068210   -3.84193280093156
H         4.64487470087471   -3.08060799035183   -2.39904081326936
H         4.85437453244438   -5.49661176039449   -2.84230331547616
H         6.32566649065931   -4.68359578176648   -3.19538841191549
H         4.47250189889062   -5.93644012894588   -5.11194391871556
H         6.20744576287076   -5.95355897455156   -5.10018580905273
H         4.30639615429695   -3.71265663414356   -5.99847327749448
H         5.53738643614749   -4.60767469205402   -6.92652034652843
H         6.45385416459391   -2.24957204915167   -6.20320676791572
H         7.21187959010566   -3.34340831404103   -5.21005184797621
