35
 energy: -44.221467056218 gnorm: 0.085332538573 xtb: 6.4.1 (025e99ea0bd20707e8cccc6e19fe66a0758c6dd1)
C         2.88002730353612    1.23468774623144    0.95089559352634
O         3.18891897526607    1.77139552894348   -0.32863794568661
C         3.14335545231437    0.88669695004513   -1.37070295206354
C         2.37731631500870   -0.27936564593301   -1.33677176564440
C         2.38691511478531   -1.17384830276898   -2.41162128744348
C         3.17460065957295   -0.96688159551678   -3.55249805049407
C         3.87657325159161    0.24529049958763   -3.58870649977980
C         3.86318602277292    1.16767182635825   -2.52903300150205
C         3.28728210740815   -1.94570435372541   -4.70308755944208
C         3.81258270417650   -3.34003293542000   -4.26899856363578
C         4.16449227799435   -4.19330945033751   -5.49893013413956
C         5.44645959556091   -4.99944664655543   -5.31306992104630
C         6.64678187530079   -4.17406634091903   -4.89196240272985
C         6.35029953060933   -3.32631786676508   -3.67160983512472
C         4.91033626223361   -3.38140421393529   -3.19439705962901
H         3.06904916032161    0.15632172029396    0.96618642240513
H         1.87284701795541    1.52389421453696    1.26702736169467
H         3.65420524697376    1.72370907556225    1.55132246209121
H         1.86706083650584   -0.66613323964433   -0.45897935912333
H         1.68786236564239   -1.98819263822500   -2.22957276210201
H         4.32627842475245    0.47131347552136   -4.55033811872783
H         4.32597199360684    2.14359501192924   -2.64170805003666
H         4.01346563128070   -1.51857064782721   -5.40978382471739
H         2.32835991835247   -2.17452576062296   -5.18761997959821
H         2.89879713708223   -3.79751687499692   -3.85378824914063
H         4.29879591265551   -3.72178503530070   -6.47858829252830
H         3.40148335206846   -4.97985130517720   -5.59487311286635
H         5.74958148412204   -5.56899319440301   -6.20093659177022
H         5.34603272643074   -5.75556142904201   -4.52347539113097
H         6.96345401657035   -3.50331849035096   -5.70098493707950
H         7.56013756342687   -4.76688123376817   -4.76806868691301
H         6.71230279194702   -2.31538594257113   -3.88803783091364
H         6.94230436320444   -3.66316354977937   -2.81075751307762
H         4.74617638206625   -2.53289849201719   -2.52254522240140
H         4.77284976254675   -4.31628732678805   -2.63087510344140
