35
 energy: -44.225229799592 gnorm: 0.087474440460 xtb: 6.4.1 (025e99ea0bd20707e8cccc6e19fe66a0758c6dd1)
C         1.14617293023779    1.21933292996523    0.46591723474002
O         2.55181436191378    1.03659913050030    0.35888497875766
C         2.94869307426248    0.50558383017759   -0.83743316582493
C         2.17524905279804    0.45117971611041   -1.99781834616679
C         2.66443287333776   -0.09488601140425   -3.18861817962717
C         3.92999369037256   -0.69704845771991   -3.21391101391261
C         4.72445624661793   -0.63835699004219   -2.06116546911875
C         4.23811377447440   -0.01636119366347   -0.89906966427055
C         4.40252793601782   -1.11405163047690   -4.59139679099049
C         5.07898904114858   -2.50381272725710   -4.45178786717470
C         4.04242908164734   -3.60493855010447   -4.17300800749110
C         4.73621068511842   -4.92635783885857   -3.85621224323255
C         5.97394091148433   -5.23214545392405   -4.67711150036057
C         5.98136623180047   -4.35710340826695   -5.91407792367539
C         5.98552766304129   -2.86423449414661   -5.63914911802238
H         0.83722825719071    1.34282276015837    1.50905663369337
H         0.66226891287834    0.35069402244651    0.00842936258732
H         0.79917328290658    2.08910708610431   -0.10161243865125
H         1.23893057091223    1.00054863382005   -1.95342447648365
H         2.02159778219397   -0.27960734070605   -4.04746285261404
H         5.75005119956869   -0.99293464841996   -2.03911648886983
H         4.84265300045445    0.09265393363463   -0.00355830324141
H         5.23325933146747   -0.49644818438381   -4.96241788757054
H         3.54294190634110   -1.16594996778668   -5.27336533256098
H         5.74037062549816   -2.33083214597508   -3.58613935583090
H         3.43616642637320   -3.64375936029171   -5.08462272338086
H         3.40209754237500   -3.42116202188358   -3.29765809247596
H         4.01876203389810   -5.74916882083292   -3.96945047344942
H         5.09181835201827   -4.90429473024815   -2.81779467318018
H         5.97840890110524   -6.28937041091314   -4.97199590783074
H         6.84473551292853   -4.89306349482175   -4.10462748151749
H         5.06186087730939   -4.68787450029069   -6.40902356076800
H         6.84086158402779   -4.61274942054095   -6.54725587127697
H         5.66541575415477   -2.34336474366883   -6.54717906765296
H         6.94846980005621   -2.49589284662087   -5.25504907503105
