35
 energy: -44.219471866770 gnorm: 0.099344453445 xtb: 6.4.1 (025e99ea0bd20707e8cccc6e19fe66a0758c6dd1)
C         0.64403197924196    0.67456342367408   -0.01174764593417
O         2.04332539483224    0.92470869944185   -0.00276689081272
C         2.75102707964957    0.41856860336331   -1.05806191457925
C         2.16544996413673   -0.08070446250484   -2.22231922035390
C         2.87072499902224   -0.58244410095257   -3.32065309140248
C         4.27109738024091   -0.59215334487325   -3.25944495496068
C         4.88193160774690   -0.10629437522299   -2.09571803113201
C         4.13522322467744    0.29267162816865   -0.97450121108255
C         5.10868315609340   -0.97572208880637   -4.46193088017778
C         5.79385109400447   -2.34598721451806   -4.21405076680398
C         5.07583707007321   -3.37649355544490   -3.32682736308313
C         5.40034259211214   -4.85201664226103   -3.53982779959309
C         4.81618433006760   -5.15145839473613   -4.90674093888072
C         4.87456674496396   -3.91973094184177   -5.78724001622285
C         6.03990741479239   -2.96542471187285   -5.59871546858849
H         0.42765710190254   -0.37093479933611    0.23105213377776
H         0.13644732243609    0.99508996843787   -0.92695928813756
H         0.21196444573982    1.27994133087465    0.79189469052082
H         1.08754845909580   -0.13548394188856   -2.34720667852937
H         2.28644760755782   -1.01390098499302   -4.13147858495930
H         5.93732227597429   -0.33347160727234   -1.98347928724994
H         4.68297198090987    0.62901090640139   -0.09920710944051
H         5.90775037211073   -0.25413546900064   -4.68555925245644
H         4.54201123054883   -1.01013478975300   -5.40233577168585
H         6.79179007934050   -2.19146190266016   -3.77027725469854
H         4.00202115383052   -3.16828187134672   -3.38740889410679
H         5.33917727476606   -3.18112826489123   -2.27681778944584
H         4.91439113031886   -5.48610953281432   -2.78726500641290
H         6.47990786112950   -5.02305654398333   -3.43716902808152
H         3.78063104602995   -5.46772877229478   -4.72700827468030
H         5.42743468179907   -5.90544045918726   -5.41554524155783
H         3.96988284638032   -3.37967252332878   -5.48764905336458
H         4.67672779983673   -4.30338647079235   -6.79653167112873
H         5.95821465079600   -2.17929540302703   -6.35609405536325
H         7.02623701259155   -3.41607587054229   -5.78454718076743
