35
 energy: -44.221077964718 gnorm: 0.090046414721 xtb: 6.4.1 (025e99ea0bd20707e8cccc6e19fe66a0758c6dd1)
C         0.71164461586826    0.93166910643467    0.10572797081536
O         2.10545874858389    0.65494151816970    0.14286800362280
C         2.81719611124070    0.43152809709863   -1.00351040288436
C         2.17504387464536    0.23037244411897   -2.22614942025359
C         2.77260355257138   -0.31710826199622   -3.36574591051622
C         4.13626316036478   -0.63940077952828   -3.32775183873963
C         4.74905044975158   -0.36659668562054   -2.09750493970445
C         4.17846215563165    0.15014101587334   -0.92222386499203
C         4.96564242612700   -1.04908680532499   -4.52730789584054
C         5.72842292119812   -2.36672267817248   -4.22642949458107
C         4.92585142809138   -3.27726115502185   -3.28226239041761
C         5.24518481633273   -4.74959667183363   -3.52329292785542
C         5.02050145705594   -5.22638758326640   -4.94510359872989
C         5.07141823313941   -4.15571732000589   -6.01604352202577
C         6.00610082165607   -3.04259800429856   -5.57832830625614
H         0.11503866118004    0.25252528111879   -0.51205949516685
H         0.48988697992372    1.97113515513150   -0.15566385090051
H         0.46316447142229    0.69586816868995    1.14575744519450
H         1.09219785348764    0.30484457924162   -2.27480879438789
H         2.19955877555145   -0.55221842942661   -4.26090846543170
H         5.81735097417335   -0.55694059957583   -2.07384715117966
H         4.84194336026447    0.45478236538490   -0.11830911768779
H         5.66413388943080   -0.20443553635168   -4.61607299702054
H         4.36999781508313   -1.24137900579705   -5.43002262298274
H         6.69770986515749   -2.17614257444508   -3.73565737960913
H         3.84481884641069   -3.14177713100530   -3.39678526394359
H         5.18944695518126   -3.06795859727612   -2.23500616342840
H         4.62576372303518   -5.37919333158320   -2.87175710240526
H         6.26576269519807   -4.91419859811103   -3.15372339155560
H         4.11643301594915   -5.84480959141736   -5.01521679120491
H         5.83974723531689   -5.90913802570937   -5.19746435854699
H         4.10394739849695   -3.68126893225623   -6.21294377105404
H         5.51742297906991   -4.57354882707591   -6.92790867471853
H         6.01065814590201   -2.23535227516357   -6.31767185721216
H         7.05031992123502   -3.38531616055141   -5.52717452537191
