35
 energy: -44.218709864464 gnorm: 0.095160877119 xtb: 6.4.1 (025e99ea0bd20707e8cccc6e19fe66a0758c6dd1)
C         0.79498682253764    0.89357888103455    0.29138319469740
O         2.20145100664486    0.77528315599630    0.12244537422421
C         2.76818214032725    0.19988715611636   -0.98136725635439
C         2.13184613055672   -0.15982962119949   -2.17021104168125
C         2.85293834331114   -0.55510656285954   -3.30126142943965
C         4.25387261907276   -0.50769133427413   -3.30555619629598
C         4.88864772019865    0.08185485573269   -2.20422355834604
C         4.15621744775105    0.30108288665816   -1.02551265652343
C         5.00629634973086   -0.97391527321105   -4.53484097514255
C         5.55731543923453   -2.39399474093524   -4.23772409547762
C         4.51043675481119   -3.28930811484154   -3.55426830660773
C         5.04675713355407   -4.71756646740302   -3.57099957566352
C         5.16094267865452   -5.24361343883848   -4.98860107617887
C         5.26726515798389   -4.14626030407625   -6.02800055566540
C         6.19051770703567   -3.08643056235879   -5.45474109533568
H         0.40064922333401   -0.12758132054142    0.31517510628589
H         0.21459337293960    1.44273288487938   -0.45665765905304
H         0.72232546551816    1.31273823296225    1.30035868164505
H         1.05072417826940   -0.05354886853938   -2.15152842427591
H         2.21600160234371   -0.69061852348051   -4.17356939556820
H         5.93866300252208    0.34893653808177   -2.13947978117328
H         4.59315577660556    0.60017124795870   -0.07739683004408
H         5.77935213519344   -0.29854303215949   -4.92912817456016
H         4.18419807344811   -1.16439950128185   -5.23807127676039
H         6.33427669818230   -2.37425158622424   -3.45501301803373
H         3.49404223734852   -3.14604965780194   -3.93705029225255
H         4.45934391502999   -3.07924217103917   -2.47570556502197
H         4.37923514030590   -5.35546775917945   -2.97764495433101
H         6.05128252841105   -4.71847516940095   -3.12807458394138
H         4.26015122930982   -5.83999996748705   -5.18250636172660
H         6.00533801140422   -5.90061361296201   -5.22597221547078
H         4.27887838756616   -3.69609906728156   -6.17053914280171
H         5.67279953848446   -4.49549444656597   -6.98642574176402
H         6.56270208945518   -2.30142173008330   -6.12072550811799
H         7.08490461018249   -3.67659706202801   -5.20525855462630
