35
 energy: -44.219336276438 gnorm: 0.088685743147 xtb: 6.4.1 (025e99ea0bd20707e8cccc6e19fe66a0758c6dd1)
C         1.54600859986420    1.45683829414828    0.70621392678581
O         1.25500953366017    0.88410937623928   -0.56184620855773
C         2.19721323421877    0.46329973978517   -1.45953130036330
C         1.70927009114137   -0.09005551048183   -2.64417417447541
C         2.66144182075315   -0.68000145666130   -3.48132747746229
C         4.03310384582016   -0.80690907458549   -3.22186400173721
C         4.48906926068938   -0.21433056045866   -2.03679691241975
C         3.55465916985750    0.36834973666310   -1.16430856761374
C         4.81119283236309   -1.47966140876047   -4.33390229188531
C         5.95434462320189   -2.45820580265073   -3.95419052811719
C         5.34622779549298   -3.63365287331858   -3.17113820293660
C         5.26398572112315   -4.99856591091441   -3.84796169909122
C         4.70324968740405   -4.84473422047654   -5.24841472601079
C         5.55307019968782   -3.82338152486800   -5.97675765156376
C         6.62133287121359   -3.08995964384750   -5.18608200983721
H         2.01830095336598    0.72058565235348    1.36477928827513
H         0.55356917285213    1.71093331662406    1.09155988426159
H         2.13200086018380    2.38120094588929    0.67197176484055
H         0.65062697840580   -0.27010275819361   -2.80948325530427
H         2.13316164155589   -1.13504333842428   -4.31728803884857
H         5.52011984544210   -0.28451783851976   -1.70503655695206
H         3.96815496259870    0.55412017934401   -0.17749391262682
H         5.20594279301096   -0.70702689000495   -5.00948625794724
H         4.01092639312417   -2.04965579985848   -4.82516871745642
H         6.65025022822914   -1.89379188727295   -3.31088069488305
H         4.36535238109486   -3.31448642631395   -2.80219504723984
H         5.98769929050949   -3.82151703314869   -2.29749231022819
H         4.63095284984449   -5.62059618128686   -3.20226741951971
H         6.24792710738225   -5.48321835575105   -3.89514218880707
H         3.72417662251425   -4.43772265814222   -4.96476193043847
H         4.67763877032634   -5.82842640110115   -5.73079583971114
H         4.93144236418552   -3.02170519699966   -6.38999450346152
H         6.01709781759623   -4.32733413610679   -6.83449397098292
H         7.06633063198561   -2.35276414148911   -5.86196299349775
H         7.40310998314862   -3.76644445566115   -4.80970611200931
