35
 energy: -44.219937068495 gnorm: 0.096228418617 xtb: 6.4.1 (025e99ea0bd20707e8cccc6e19fe66a0758c6dd1)
C         0.67490528567300    1.07210098675702    0.13183392672152
O         2.08961911411740    0.93537333232359    0.10804932284856
C         2.69643768866060    0.53332409282332   -1.04987756999397
C         1.97819034363223    0.10481289444548   -2.16709202071827
C         2.79396687531448   -0.47718631283265   -3.14242703824036
C         4.18199580737954   -0.64469050698444   -3.04142439775023
C         4.87406194621124    0.04390097888229   -2.03627567757666
C         4.08679604423555    0.60009956660705   -1.01415535188628
C         4.83101595329325   -1.25544470963655   -4.26633233509586
C         5.66589613991454   -2.54576269863128   -4.05050668124163
C         4.97374851060007   -3.70671778731646   -3.31718017810970
C         5.46477996676928   -5.04769340656269   -3.85431507472054
C         5.06577882033974   -5.27306442029963   -5.29977823827780
C         5.11771612135682   -3.99236272264407   -6.10782856198271
C         6.08374790745538   -3.02372156598252   -5.44997017728767
H         0.26097914292985    0.12530517730002   -0.23021468777971
H         0.38614845734720    1.90901702099245   -0.51173646361825
H         0.49520068537566    1.31871997426133    1.18344749742998
H         0.93687825611593    0.36585791347703   -2.33440592418748
H         2.45636940573685   -0.94461663703175   -4.06574168681669
H         5.93798021992028   -0.08798109032285   -1.86674248642784
H         4.56965133373300    0.92535716783033   -0.09744883717052
H         5.48305954625841   -0.47276157546715   -4.68039946041654
H         4.01810142155659   -1.41969781811254   -4.98664722832175
H         6.54803022091178   -2.14185304144736   -3.52572894854634
H         3.92601565055273   -3.45213905276077   -3.51095419965305
H         5.20060585296320   -3.64858563736834   -2.24238151714272
H         5.00748119655705   -5.80834104286723   -3.20866316922440
H         6.53423568763000   -5.16396322946210   -3.63522506959626
H         4.09246720917927   -5.76620984506872   -5.41883067485000
H         5.81946515989188   -5.96182329228599   -5.69798155509590
H         4.10704162591467   -3.57545717545346   -6.17563433833878
H         5.40531558226226   -4.29353068138780   -7.12349871853957
H         6.20830304710488   -2.13700761724280   -6.07966828708008
H         7.02841439076567   -3.57913155653596   -5.35203680360722
