35
 energy: -44.226061675229 gnorm: 0.099662367700 xtb: 6.4.1 (025e99ea0bd20707e8cccc6e19fe66a0758c6dd1)
C         1.25174145893374    1.39965974814791    0.60440414454444
O         2.51379366619634    1.57515268090350   -0.02575601778735
C         2.89555791389840    0.75681981533215   -1.05301180633382
C         1.97408042598569   -0.05372983596221   -1.71750992158909
C         2.47310793141048   -0.81122578221974   -2.78177693777131
C         3.79035604284651   -0.71155609627145   -3.25061260223760
C         4.66112714635027    0.14661216907343   -2.56596476338138
C         4.19181572127553    0.95848262465874   -1.51978715132243
C         4.33903725149514   -1.56872143770229   -4.37260361472803
C         5.06061534449621   -2.83814333879764   -3.84684770849718
C         4.16317634606435   -4.06932999564860   -4.05525955850443
C         4.97612707137963   -5.34938000551842   -4.22385522004704
C         5.66587502997885   -5.24154271313671   -5.56995203760439
C         6.10239672488160   -3.82215492752954   -5.87099484913356
C         6.35755848648996   -2.93583601886232   -4.66534480396446
H         1.34211495441948    1.64083853380011    1.66859481304853
H         0.92295328955690    0.35570196165399    0.59790185911025
H         0.42088741340516    1.99124008332096    0.20600732343522
H         0.95760660629996   -0.18267955948589   -1.35609289896943
H         1.81320113341561   -1.55514325114142   -3.22458944586438
H         5.64166033329877    0.32920691680074   -2.99406558979945
H         4.91942361035890    1.59082239591006   -1.01976140287164
H         5.07900716465279   -1.03906625947696   -4.98994893359789
H         3.45964426900005   -1.76432919682070   -5.00114817186920
H         5.27635914024125   -2.67877891268399   -2.77691648750230
H         3.41278054211548   -3.85998519976431   -4.82544378707698
H         3.58923266775030   -4.05418999184535   -3.11696578605673
H         4.35505767431045   -6.25329264764210   -4.18156910567483
H         5.68292469648488   -5.35257524857088   -3.38380667912931
H         4.98665454088018   -5.57291444337466   -6.36591289749719
H         6.48611986739270   -5.96811267404501   -5.58704774960467
H         5.38065189830811   -3.25029943329370   -6.46423720760553
H         6.98296876177809   -3.80828716398149   -6.52628259621582
H         6.68350385622352   -1.95334545957639   -5.02138867620123
H         7.09332417109416   -3.39833798083709   -3.99065467955496
