35
 energy: -44.215140808341 gnorm: 0.102930859383 xtb: 6.4.1 (025e99ea0bd20707e8cccc6e19fe66a0758c6dd1)
C         1.01862929420144    1.03616010894290    0.46244138751470
O         2.28316935470783    1.32755314091105   -0.11782054698740
C         2.76686187049427    0.66409699995232   -1.21168277956756
C         2.03049303011449   -0.18347583688326   -2.04056785830273
C         2.66458726414644   -0.77088284419873   -3.13982686739673
C         4.04068364730770   -0.57664260645088   -3.32289246985973
C         4.78177814983106    0.33287939392495   -2.55674206943795
C         4.12577198283937    0.86883938018124   -1.43590431828333
C         4.69512918079635   -1.55096853986085   -4.28051314666943
C         5.38198087816156   -2.75681002110363   -3.58574178316780
C         4.39318330753663   -3.92601256099834   -3.44468285032585
C         4.58021327200189   -5.07953534188327   -4.42562443382966
C         4.98610382659760   -4.66440143744681   -5.82643650815965
C         6.23774046387932   -3.81309384465503   -5.75919991395443
C         6.59074142753167   -3.25954779242832   -4.39053711830842
H         1.00439039740309   -0.00667099684736    0.79581339334507
H         0.12296250675156    1.14750772683844   -0.15673105400962
H         0.96648970082519    1.66445065398768    1.35772805816046
H         1.00788152474300   -0.46613082242394   -1.80638588572932
H         2.07571336755736   -1.45586893985311   -3.74727620260429
H         5.81731500204026    0.54514781720568   -2.80303872036077
H         4.61667928796216    1.67088896768161   -0.89274774218030
H         5.38317458016745   -0.98767861767532   -4.92743146989881
H         4.01370609828045   -2.00837835346374   -5.01065115819829
H         5.53076891266262   -2.34136575901718   -2.57481972368941
H         3.42666902065896   -3.41133872538878   -3.47729924482680
H         4.36334408117694   -4.25382863824920   -2.39507244329015
H         3.57697050106882   -5.47749656908821   -4.62488351273776
H         5.23398372819647   -5.89212467777848   -4.08278714928577
H         4.12936502010034   -4.15103085769535   -6.28157456562386
H         5.23999554604254   -5.58688842794054   -6.36080951623589
H         6.23818718768549   -3.01837177802752   -6.51304832892867
H         7.02794141661942   -4.53355371674836   -6.00723516391058
H         7.41226769176839   -2.53973962906129   -4.46310519122916
H         7.04570954967877   -4.07388379287982   -3.80716171925999
