35
 energy: -44.224017276331 gnorm: 0.097216955309 xtb: 6.4.1 (025e99ea0bd20707e8cccc6e19fe66a0758c6dd1)
C         0.82140850344948    1.01939339907438    0.07174237577733
O         2.14165182893137    0.49774543807323    0.14601452982919
C         2.66035285328966    0.17963154769943   -1.07890174530553
C         2.00055737214381    0.15329909952996   -2.30839178740236
C         2.78992763055988   -0.17637655971080   -3.41460216203357
C         4.13431781944039   -0.56352300499936   -3.32733158755809
C         4.76984431671785   -0.52879038019027   -2.07899771140356
C         3.99234703361643   -0.20642659727379   -0.95407370860510
C         5.01181834471509   -0.95068015576383   -4.49982870008450
C         5.76525415115142   -2.29225450307023   -4.29724806650458
C         5.11557378960481   -3.25194117612311   -3.28652073641566
C         5.41628627072617   -4.74291151407866   -3.40660757997103
C         5.01508673633933   -5.19969853745430   -4.79575923251183
C         4.93514393870678   -4.09761657598189   -5.83251578303731
C         5.96264598406573   -2.99536656618820   -5.64936224244103
H         0.09261330884286    0.22107706240403   -0.10257041347729
H         0.72873245658115    1.69606561262336   -0.78354568653057
H         0.73015951922243    1.53376888060174    1.03408184773321
H         1.00838708572635    0.50654145335177   -2.57538856391345
H         2.37599355119616   -0.04923807066376   -4.41333510114292
H         5.82574125165342   -0.76887530195693   -2.00485338584275
H         4.31597922842931   -0.27799133372526    0.08006036066091
H         5.70968248509471   -0.13000539912676   -4.72047298901286
H         4.38840460159885   -0.94464644257405   -5.40425203236284
H         6.77365993484301   -2.07667762959010   -3.90566205681638
H         4.02608208206560   -3.14209247835740   -3.31883064043590
H         5.46113722551542   -2.92249955960283   -2.29551624776479
H         4.92136567848699   -5.31822709032527   -2.61374001979818
H         6.50529863330913   -4.86985305306732   -3.35010483280558
H         3.99907862186752   -5.61412271312788   -4.76965369177991
H         5.60355620804833   -6.08134368805175   -5.07397366784516
H         3.95503810522323   -3.60975413175594   -5.86792179160997
H         5.14605425436877   -4.43900255154247   -6.85426619857797
H         5.96901981341366   -2.23257229805750   -6.43447344291343
H         6.97331922597248   -3.41626943959356   -5.75820311742518
