35
 energy: -44.223258468990 gnorm: 0.110909474841 xtb: 6.4.1 (025e99ea0bd20707e8cccc6e19fe66a0758c6dd1)
C         0.92079818009621    0.80269835938597    0.24879409738676
O         2.34150794066932    0.76835613021344    0.21593430980728
C         2.89102221939654    0.41955543475440   -0.98699511318675
C         2.22266368596013    0.18398527487284   -2.18927328245508
C         2.95841480223978   -0.12510501183139   -3.33758783607071
C         4.34225495336308   -0.34825415212723   -3.34621360994148
C         4.93485614978424   -0.23727219252228   -2.08132446108778
C         4.26477671103483    0.20048804235123   -0.92666695569392
C         5.04738849131054   -0.95892846014081   -4.53974236382125
C         5.22371344427358   -2.49052122250667   -4.36181180462974
C         3.89145262534001   -3.25819646714314   -4.34159652240569
C         4.07881325138154   -4.74251465577721   -4.04236933007302
C         5.53040561515837   -5.16268582113073   -4.16764330495064
C         6.18080592747535   -4.58668401075427   -5.40903002810000
C         6.05648454448437   -3.07733490584073   -5.51232684288232
H         0.49410658218010   -0.20077357831232    0.14972489944934
H         0.49671952355594    1.45775494417589   -0.51870180759622
H         0.57037118465414    1.18478498958433    1.21327141498819
H         1.14164827567575    0.28146395591234   -2.23798576621464
H         2.42024673971957   -0.42263975976353   -4.23582016057186
H         5.98141094313895   -0.52047625273186   -2.03057986303044
H         4.82934743058824    0.40084255531442   -0.02090178546219
H         6.04252094931523   -0.49261529328417   -4.57806655690286
H         4.58408733631342   -0.58067792216073   -5.46112243212620
H         5.74054524892212   -2.71257798804128   -3.41298574309019
H         3.25288274083021   -3.06196686051411   -5.20982765058946
H         3.33363053036319   -2.68917444599262   -3.58325344931058
H         3.43810470342217   -5.18623830256912   -4.81514048499948
H         3.67847857258903   -5.07232064625129   -3.07478739811926
H         5.64889794691948   -6.25332656440546   -4.13352993419829
H         6.04916573751093   -4.66981631055189   -3.33760394116184
H         5.56363248358355   -4.90783446535101   -6.25509747335774
H         7.20267664978429   -4.95190918131703   -5.57453609560431
H         5.75864570796369   -2.86093034640616   -6.54322761973518
H         7.02252028434956   -2.57789577864993   -5.34558909086777
