35
 energy: -44.217601855600 gnorm: 0.102203451232 xtb: 6.4.1 (025e99ea0bd20707e8cccc6e19fe66a0758c6dd1)
C         1.47950835950275    1.16615365504942    0.91240206943345
O         2.66341076464705    1.44781785961510    0.17774858163768
C         2.85724977039589    0.88697033704388   -1.05454341597974
C         2.12408959865647   -0.18807560797986   -1.55894566581114
C         2.57467288231480   -0.86219803267643   -2.69825532928122
C         3.78856112024085   -0.57240415645797   -3.33651733577727
C         4.45782697758701    0.57875710644476   -2.90022762508913
C         3.97601996095355    1.28189886104722   -1.78338917637894
C         4.20285998115840   -1.51923474367435   -4.44399899282161
C         4.67847114208291   -2.91623526642524   -3.96367646832067
C         3.98526077414079   -4.11101693461181   -4.63940494785326
C         4.76757998673268   -5.41911669599375   -4.70791088503097
C         6.03358413109761   -5.18936601356507   -5.51028604529308
C         6.46858564675677   -3.73794833004351   -5.51048277699248
C         6.18940956988204   -3.12606773877382   -4.14962877288210
H         1.34534875563991    0.11129159976601    1.17336873267227
H         0.61674527089455    1.57725097092416    0.37889419648521
H         1.73342630666451    1.73370018420169    1.81374683455951
H         1.18779203485205   -0.41788730324632   -1.05794388143140
H         1.96431894371188   -1.69966456094270   -3.03155848276088
H         5.49486766661085    0.73035392650529   -3.18240045536105
H         4.63328047333268    2.09416322456702   -1.48753818724111
H         4.95003505271675   -0.98640668329211   -5.04982817140696
H         3.26207971316255   -1.55355820679266   -5.01005293592815
H         4.38312626112357   -2.98141488626099   -2.90291342297512
H         3.52515848219187   -3.85111511328326   -5.59901933508965
H         3.11108944748143   -4.41684848871885   -4.04583328604834
H         4.25222970468670   -6.33793737959853   -5.01573552914632
H         5.10437885818085   -5.61641901870355   -3.68180516136470
H         5.85421047837684   -5.32846814085002   -6.58414687304732
H         6.84811958327309   -5.85024852229231   -5.19285247634355
H         5.90170136168319   -3.09148420263447   -6.18915584673881
H         7.54033337169316   -3.73254334058326   -5.74782021118468
H         6.62191972426942   -2.12389750853598   -4.06665216662246
H         6.51500384794741   -3.77066667432334   -3.31960073263941
