35
 energy: -44.212428270111 gnorm: 0.109867780521 xtb: 6.4.1 (025e99ea0bd20707e8cccc6e19fe66a0758c6dd1)
C         1.56527251668713    0.72101214493689    0.93111426181861
O         2.44378370545690    1.28341676836312   -0.03459506492510
C         2.87776812368733    0.67423449669510   -1.17968089833039
C         2.20836003253814   -0.38497140808909   -1.79420910118003
C         2.63870790657704   -0.90329590742124   -3.01962057598640
C         3.84287961631374   -0.40636419806555   -3.53722363135396
C         4.49917773969526    0.67141121190600   -2.92803505930549
C         4.03775837131009    1.22236321286464   -1.72079915644502
C         4.49084687535438   -1.20459715990154   -4.64970281399226
C         4.84016177658048   -2.58707061292735   -4.03710796639510
C         3.89468611704331   -3.66116829135021   -4.60017350387681
C         4.44683334375851   -5.04493348837383   -4.27128335587315
C         5.65618720426390   -5.29496074437482   -5.15123073095350
C         6.50650834559951   -4.05398977213588   -5.33229606068530
C         6.26785413424301   -3.14637347902661   -4.13917511373517
H         2.02196260515934    0.93512763813992    1.90292961189454
H         1.60745915580287   -0.35154915868488    0.71704805766452
H         0.57125288080476    1.17986174111949    0.91142217847184
H         1.24015762197361   -0.74493291314425   -1.45733948161421
H         2.03641643754449   -1.65062435478157   -3.53315566519058
H         5.46824242352408    0.89059525227230   -3.36498871788295
H         4.65269930206511    1.98948244343089   -1.25963940059387
H         5.39529976466171   -0.64970694673089   -4.93826330437405
H         3.81747820694950   -1.34038336434412   -5.50690723638922
H         4.76342450467467   -2.42863667874722   -2.94820700273339
H         3.64981609330076   -3.48281845955164   -5.65294739325742
H         2.99252158988448   -3.51868185755986   -3.98712166889679
H         3.71382010729860   -5.84462541021965   -4.43789008534420
H         4.68740847960120   -4.96503181996248   -3.20311016215495
H         5.22371061247700   -5.73950232487258   -6.05679584058357
H         6.15791043921993   -6.11200309799945   -4.62046397135815
H         6.06120314836908   -3.53405854661612   -6.18742505610069
H         7.53850060546458   -4.30385098251979   -5.61079706377892
H         7.07082515394734   -2.40534814677152   -4.20561545710512
H         6.48505702610834   -3.76595543527604   -3.25633476928639
