35
 energy: -44.219018968209 gnorm: 0.094340790157 xtb: 6.4.1 (025e99ea0bd20707e8cccc6e19fe66a0758c6dd1)
C         1.10908606889702    1.04280833173069    0.73250353255666
O         2.40482068530002    1.20896596939677    0.17202265399280
C         2.79862310083113    0.71834316840337   -1.04242207453356
C         2.01309311298790    0.07208695379695   -1.99791398774681
C         2.60639331088374   -0.65469249422069   -3.03487076595558
C         3.99001134079539   -0.61975491408721   -3.25682582667026
C         4.71194707025662    0.28931527378040   -2.47207238418582
C         4.16811811249418    0.79852955071077   -1.28092783197821
C         4.60066153217471   -1.34250688393419   -4.43978113821381
C         5.34952149092589   -2.63177435229702   -4.00905577799441
C         4.44182570549108   -3.83218508513842   -3.69321520282921
C         5.27052419978509   -5.08354130289586   -3.96745566125041
C         5.18932204256781   -5.33459050568522   -5.46068648015048
C         5.55616379368342   -4.00498356194721   -6.08791224170572
C         6.28813761756994   -3.06682462200487   -5.14539811020743
H         1.12175056809701    1.54223163748480    1.70679934386093
H         0.85072482837281   -0.01954356262664    0.78397897040405
H         0.32153735214970    1.50231161421659    0.12617893464218
H         1.02373147505484   -0.20656929142104   -1.64580095934787
H         1.96312423929113   -1.20543969112179   -3.71887042548249
H         5.77256936369681    0.33539447816632   -2.69793419880016
H         4.68430946856616    1.46780741939609   -0.59908752106860
H         5.41871270175257   -0.69824532701516   -4.79322796617000
H         3.84193234150998   -1.54475887270883   -5.20795222629109
H         5.82374176003151   -2.33143823676215   -3.05952506289977
H         3.49313176174179   -3.82614743958930   -4.24097993201613
H         4.11606344341816   -3.75628890239969   -2.64528653877903
H         4.88620004535595   -5.93374973275526   -3.38951626420362
H         6.32242701758954   -5.02296245174569   -3.65909660457636
H         4.19070564505286   -5.60236087331913   -5.82915046458890
H         5.85597121626127   -6.17610028351286   -5.68077268575974
H         4.62312862170188   -3.50575724696375   -6.37091268532193
H         6.24597488519633   -4.10177605759975   -6.93631858877801
H         6.57633827896879   -2.14176639228470   -5.65481245326382
H         7.21679822561048   -3.56581788879114   -4.83065827488313
