35
 energy: -44.210321204625 gnorm: 0.109489361069 xtb: 6.4.1 (025e99ea0bd20707e8cccc6e19fe66a0758c6dd1)
C         1.05350407140271    1.20863942308672    0.65780233341958
O         2.16371992347775    1.63324121196840   -0.12181902449902
C         2.65547164343661    0.81004741946346   -1.09711349497029
C         2.13402409107785   -0.36410793626629   -1.64220147566675
C         2.78723792829344   -1.09003471955188   -2.64311847109504
C         4.05384067216498   -0.70028627041369   -3.09995231469152
C         4.63984930739481    0.41440736034310   -2.48555036701454
C         3.86979074950634    1.22661242942151   -1.63631117689232
C         4.78848703252344   -1.37882943998586   -4.23772259802771
C         5.25340362265837   -2.82901114102013   -3.93880493151908
C         4.13116825281281   -3.87349183476909   -4.05839040937454
C         4.76841437074478   -5.25024531194032   -4.22058983651264
C         5.43818270818291   -5.25460334687753   -5.58101225317820
C         6.09734343653293   -3.93876024458297   -5.94143383161361
C         6.53057184258204   -3.10943238808285   -4.74611411848699
H         1.42498764407805    0.31078365392993    1.16247185985150
H         0.15980827045389    1.18776432101920    0.02624564778314
H         0.82707473480214    1.88370204173763    1.48968332539466
H         1.11298193925182   -0.40476307009492   -1.27302750399134
H         2.26544624061316   -1.87381924991421   -3.18936781758797
H         5.63394174372771    0.68730410201879   -2.82520327032878
H         4.30451313593861    2.17899820528552   -1.34774511714227
H         5.64161712225473   -0.74419483896083   -4.51810322786123
H         4.14160639849745   -1.54951334697723   -5.10897176946245
H         5.54378624943539   -2.85877551296100   -2.87509104369029
H         3.58767604308045   -3.66613781650705   -4.98668097842077
H         3.37422361588803   -3.80062978594907   -3.26355602225531
H         4.02058244194355   -6.05084409641010   -4.15454160706332
H         5.50842599489497   -5.35262863156846   -3.41613033146351
H         4.71243495662505   -5.53591461496965   -6.35486983578131
H         6.11264171791834   -6.11798945120446   -5.55518119097163
H         5.36342606143173   -3.30467532069195   -6.45052360018475
H         6.86992244120520   -4.16343423136590   -6.68818997583272
H         7.03438466411138   -2.16472737331978   -4.97415007269055
H         7.34988581524054   -3.70925676533351   -4.32255621444485
