35
 energy: -44.220388300940 gnorm: 0.088691022556 xtb: 6.4.1 (025e99ea0bd20707e8cccc6e19fe66a0758c6dd1)
C         2.67357597409061    2.30245732076870    0.49456429719395
O         1.92708357712156    1.15545329122018    0.11010852769794
C         2.44029361576240    0.37619625865169   -0.88991197828803
C         1.60589133278963   -0.15464294378829   -1.87462098454044
C         2.18077488611205   -0.79713041746708   -2.97562579417911
C         3.57096372900731   -0.90093384395020   -3.12219776341190
C         4.39540062059934   -0.49307170431052   -2.06513104697630
C         3.80625569129362    0.11108862016299   -0.94184434882002
C         4.27957598621912   -1.32882721217536   -4.39082822898578
C         4.97855093912406   -2.70728689883670   -4.25008348217544
C         4.01099646183199   -3.90190900552884   -4.28708602876207
C         4.68578166642769   -5.25495378011898   -4.49147822045727
C         6.19088862834467   -5.14863341092021   -4.64216591242503
C         6.45148910709728   -4.14472027882995   -5.74674070106636
C         5.90419132483109   -2.75499593610614   -5.47583084290930
H         3.09852947505410    2.15062252250112    1.49215994300754
H         1.89159048248400    3.04727363095377    0.67271917197200
H         3.43328443899050    2.60584332896119   -0.23331326553204
H         0.53495781906797    0.02343349826849   -1.83149886345441
H         1.48909363512308   -1.23375961119619   -3.69389113130791
H         5.47677062641449   -0.56694975929281   -2.12202949939722
H         4.43329011942738    0.54900991046982   -0.17090637831427
H         5.13392446072231   -0.65278774473645   -4.54004166823615
H         3.62950952450591   -1.20716498903950   -5.26791121529165
H         5.50643179951667   -2.57479253496903   -3.29066581263511
H         3.18990858379000   -3.80606319484149   -5.00592615481444
H         3.49557238891037   -3.90729007748007   -3.31531196248296
H         4.43287096468784   -5.60606754782886   -5.50010534435046
H         4.28510047851683   -6.02446309470822   -3.81874897188733
H         6.69292343390726   -6.06721750789547   -4.97211393413041
H         6.57782067893961   -4.78706955332764   -3.68271141666469
H         6.06076556133691   -4.54995885384327   -6.68641490221385
H         7.52358073092645   -3.95947510509169   -5.89270382735194
H         5.38583055681910   -2.49982145206326   -6.40560684780579
H         6.74685647978224   -2.06437773823215   -5.32276905100078
