35
 energy: -44.225219486292 gnorm: 0.084280833041 xtb: 6.4.1 (025e99ea0bd20707e8cccc6e19fe66a0758c6dd1)
C         2.27006014567591    1.73764741617890    0.92936195163941
O         1.71527268911276    0.70837160106873    0.12098236900729
C         2.40609366536357    0.35473984623127   -1.00524053238509
C         1.73000646704858   -0.24310481695577   -2.06973905486377
C         2.38814089749646   -0.79703359934801   -3.17224294140625
C         3.77878284299875   -0.70152778594984   -3.32015215410394
C         4.43095987107817    0.02362037919787   -2.31403933913148
C         3.76256331403615    0.58880158446466   -1.21508953043900
C         4.41563450779828   -1.25208473460705   -4.57949893417862
C         5.38734678597623   -2.43730820490085   -4.33547693209239
C         4.61519019317401   -3.55807831816459   -3.61972461334485
C         4.38055618112915   -4.79306384342028   -4.48436270881392
C         5.71762151077549   -5.46505751768121   -4.72939041128542
C         6.47844981922594   -4.44736866467170   -5.55479293801757
C         5.91401672800167   -3.04123214576463   -5.64675016939831
H         1.47415552578929    2.17919973693396    1.53796998608811
H         2.71087119780320    2.53041230669527    0.31682522207055
H         3.01118676025367    1.39480955045546    1.65888186560143
H         0.64921533626513   -0.25112569786692   -2.18062425517008
H         1.71237082201470   -1.18414903215812   -3.93280164882946
H         5.50119865865843    0.20429985063516   -2.31344755733174
H         4.32924923148734    1.11402519882561   -0.45200381907904
H         5.00444346928097   -0.46848181496153   -5.07797239427906
H         3.66876388902960   -1.53068597960879   -5.33529539469982
H         6.26809356867054   -2.08088945470565   -3.77516809139520
H         3.73043450207886   -3.09186188957765   -3.17256417243497
H         5.17891946545055   -3.96026437429591   -2.76503668792084
H         3.81437889882065   -4.55441720523236   -5.39379354303304
H         3.67962006278119   -5.41863111848756   -3.91637610241433
H         5.61715896044511   -6.41063858959264   -5.27755562215978
H         6.17476842464685   -5.66783788341183   -3.75425217173564
H         6.43325391293446   -4.77282870145284   -6.59973498926666
H         7.54966219080913   -4.34908211256511   -5.33605733132608
H         5.17166926246897   -2.96703030594395   -6.44781798568984
H         6.68268712562025   -2.35863335445663   -6.03875868770449
