35
 energy: -44.216713466276 gnorm: 0.094293354610 xtb: 6.4.1 (025e99ea0bd20707e8cccc6e19fe66a0758c6dd1)
C         2.15979400846506    1.93816223809710    0.66105500028549
O         1.56851006457556    1.41685776772908   -0.52186524856042
C         2.18960326633395    0.57188735684304   -1.39989446886460
C         1.71185874413989    0.46610907976020   -2.70689117138548
C         2.38151299979167   -0.39321818242984   -3.58359676407090
C         3.50398060195225   -1.12684799016915   -3.17526192805247
C         3.69287242289906   -1.28927841250460   -1.79635874171311
C         3.10074246928467   -0.36502549240447   -0.91942481822812
C         4.15525552304631   -1.85035928982555   -4.33587371393956
C         5.52604518507316   -2.44656970540558   -3.91874660478802
C         5.33855535796361   -3.75824398904578   -3.13835505262742
C         5.88863049912393   -4.96543855992215   -3.89197300083329
C         5.47919823189874   -4.96560475058814   -5.35201510955127
C         5.85285269998595   -3.72584605387250   -6.13892067052815
C         6.39382427332224   -2.69772337386195   -5.16189750188220
H         2.17536017261327    1.26240519201656    1.52241814119447
H         1.61649375329338    2.82885880963695    0.99192695280447
H         3.19786761738780    2.23865921606682    0.48467327301236
H         0.87689949287164    1.02486576847442   -3.12053756806748
H         1.95978234655853   -0.59447153846594   -4.56676178445073
H         4.33588990691799   -2.08828989965342   -1.44116069721373
H         3.45088539954927   -0.29002457403943    0.10579094955559
H         4.25630373700244   -1.08567713522584   -5.11961843706030
H         3.50506102310454   -2.67774432461804   -4.65106221666486
H         6.00004121876385   -1.69211504684369   -3.26849961154315
H         4.30088465604924   -3.98522828567716   -2.87036159402298
H         5.80579129028596   -3.67478095535747   -2.14600417109398
H         5.53470078985421   -5.87607436188653   -3.39192343023077
H         6.98354442098749   -4.97108953371345   -3.81205921812073
H         4.38831616848615   -5.08468256312003   -5.32969505756661
H         5.80899274194672   -5.82223204754438   -5.95069951678847
H         4.95409246022179   -3.40216379987421   -6.67495296920534
H         6.66685230967181   -3.87440652726846   -6.86026377819524
H         6.76127184064692   -1.77786152243489   -5.62787151321110
H         7.27299558514418   -3.20320833601141   -4.73527269087799
