35
 energy: -44.223883774992 gnorm: 0.079465390530 xtb: 6.4.1 (025e99ea0bd20707e8cccc6e19fe66a0758c6dd1)
C         2.39578188794596    1.85848518967684    0.93362709766539
O         1.71969592797496    1.22283015674333   -0.14318571052848
C         2.38362653324817    0.43912301760341   -1.04632818444121
C         1.57566256748639    0.03649767001184   -2.11063843347382
C         2.14277879293366   -0.56932134485576   -3.23618512085015
C         3.50345506647849   -0.89009990291322   -3.33887252904479
C         4.28509949526869   -0.48246353710074   -2.24969747369643
C         3.74641718351436    0.16441452727351   -1.12486657428118
C         4.02354387755270   -1.46538217427391   -4.64010472872686
C         5.03098540188536   -2.61997710188208   -4.39414071656358
C         4.29089145236993   -3.91341102797045   -4.01474322723574
C         5.20541676640237   -5.09567409735271   -3.70857515473856
C         6.43172744786913   -4.97246469098927   -4.59194332445473
C         6.35067995429220   -4.20059885113885   -5.89328650673128
C         5.93326330603262   -2.76515687626173   -5.62960025704631
H         2.64008818072737    1.10110936589835    1.68564614739910
H         1.66452996610365    2.55324580833362    1.35856251663306
H         3.32502861112424    2.35226238043415    0.63082290498442
H         0.49320920556832    0.09916074823148   -2.04108711282882
H         1.37634266170848   -0.80829954128542   -3.97133012475560
H         5.35542627768837   -0.66129604113387   -2.22788019745108
H         4.40200868857856    0.57227367732691   -0.36122840201879
H         4.56856448201650   -0.64865763730815   -5.13519956242234
H         3.23122002798734   -1.82154332743330   -5.31244006931648
H         5.65516141257440   -2.33650476726834   -3.52999781038200
H         3.87786495199529   -4.23290188227606   -4.97777882163842
H         3.59243556127196   -3.73733903444807   -3.18336257663960
H         4.50550074312667   -5.92615495823427   -3.86666524378852
H         5.58464028242414   -5.11915730634013   -2.67857869556527
H         6.82739199787711   -5.95388884436518   -4.88341816281550
H         7.17662366587313   -4.38427724331791   -4.04407206622932
H         5.63868958279289   -4.67259881858696   -6.57896612368997
H         7.34053757696864   -4.19742627313970   -6.36781077296399
H         5.44523186469251   -2.44178060255389   -6.55455886012236
H         6.77320224103681   -2.10166356369821   -5.37514951609100
