35
 energy: -44.219705280310 gnorm: 0.105015454083 xtb: 6.4.1 (025e99ea0bd20707e8cccc6e19fe66a0758c6dd1)
C         0.80885778075535    1.07436457479493    0.24187205894085
O         2.14299936886382    0.59039061091890    0.16118255763808
C         2.75318473480314    0.34323839534441   -1.03767384216315
C         2.06213237832914   -0.13944208176360   -2.14993974198490
C         2.73400104866364   -0.44307639397181   -3.33817016314211
C         4.13344115236218   -0.47642735594496   -3.26510418779935
C         4.90689372220853   -0.06172808044453   -2.17275196230043
C         4.14196093431030    0.42326769200530   -1.09872618250799
C         4.82246504482081   -1.04356937944921   -4.48913169455882
C         5.52326081306720   -2.38243110465235   -4.13577528784760
C         4.60014430081300   -3.43629632138025   -3.50183771802244
C         5.16063875553653   -4.85022038283585   -3.62227906800529
C         5.10587764549662   -5.33407854688517   -5.05832929903134
C         5.38173721788069   -4.13984213040577   -5.94913821570264
C         6.23569333460345   -3.05368137570518   -5.32042959897277
H         0.12337227310547    0.29124539686381    0.58197546179663
H         0.53538000995319    1.49873316538629   -0.72926799692476
H         0.80948473975950    1.92523303968125    0.93109497652947
H         0.97925500744161   -0.20940316454080   -2.09561326461814
H         2.36050634955653   -0.67939068650773   -4.33297183518176
H         5.98636025591064   -0.15420241214454   -2.10750638358521
H         4.64359419404815    0.84504856088254   -0.23284076937615
H         5.54588066128400   -0.29486831512379   -4.84314000785320
H         4.14008522376893   -1.31516962881559   -5.30598771327758
H         6.31912898775722   -2.08365911078480   -3.43290661718692
H         3.59752411303718   -3.45273948293611   -3.94295587875979
H         4.52863902651856   -3.14702973572655   -2.44294791984226
H         4.73486383153319   -5.48766822342657   -2.83681784049595
H         6.22472990319036   -4.72827204878119   -3.38125359919645
H         4.21267901505445   -5.91668994684002   -5.31806290966132
H         5.91270239798272   -6.05491893940885   -5.23274464114626
H         4.43421513283328   -3.65625869344387   -6.21032733077637
H         5.73419697903150   -4.31152054387012   -6.97446747799121
H         6.50267527044975   -2.37528708307346   -6.13700608007031
H         7.23952200257258   -3.39984220642888   -5.03239027332566
