35
 energy: -44.226895699493 gnorm: 0.093757439629 xtb: 6.4.1 (025e99ea0bd20707e8cccc6e19fe66a0758c6dd1)
C         0.69153266304768    0.89270284943589    0.17068142333592
O         2.08886255567534    0.63657163033522    0.12026966764558
C         2.67583564533323    0.35887509990227   -1.08348043184299
C         2.09585788661669    0.25797666129315   -2.34883198241196
C         2.89806688407121   -0.18598265543536   -3.40469830692633
C         4.26175723671719   -0.47976434018521   -3.26713207338833
C         4.82032002972098   -0.42506744156342   -1.98321088946423
C         4.02910913765551    0.06804027016426   -0.93216162274906
C         5.01747992088807   -1.01406338227656   -4.46632141711200
C         5.71297650227138   -2.38220241504378   -4.23609052166136
C         4.90289852970560   -3.36462769289158   -3.37396113266026
C         5.39992293105302   -4.80105614406113   -3.50617857829516
C         4.95707513420858   -5.22398448113810   -4.89339709742298
C         5.12032867039698   -4.15857335578753   -5.95833233739432
C         6.05453582400474   -3.01955405774779   -5.59206359414900
H         0.10595307605830   -0.03239046267674    0.18231182248842
H         0.42194473285158    1.49731158937239   -0.70096209382339
H         0.51881224331846    1.53191253942250    1.04279632238483
H         1.03862363110603    0.47767734177632   -2.46906785066513
H         2.43904078175659   -0.21351775604349   -4.39136439078480
H         5.86640458213095   -0.60269964384871   -1.75471494133693
H         4.61603756478309    0.35935022832227   -0.06616732966455
H         5.85597716981834   -0.33169415695502   -4.66756736413229
H         4.40580194759398   -1.10022894791457   -5.37466508383877
H         6.63427774276118   -2.19355739710017   -3.65962516826626
H         3.83552101715944   -3.37998617767067   -3.62007535968994
H         4.85469907611186   -3.04015288115136   -2.32399509804251
H         5.02441134442758   -5.50358078861918   -2.75117954029005
H         6.49307383975457   -4.81119150762277   -3.40531724895231
H         3.89874907587939   -5.48560034469741   -4.76610027649295
H         5.53028649243458   -6.12889906942803   -5.12481898695361
H         4.10342792540398   -3.76446107051011   -6.06060245739879
H         5.35382003002813   -4.52386682218247   -6.96681829448195
H         5.93141072449007   -2.29761822208606   -6.40566311450555
H         7.05011946287972   -3.47622238308622   -5.69566487778824
