35
 energy: -44.220329248503 gnorm: 0.103620805340 xtb: 6.4.1 (025e99ea0bd20707e8cccc6e19fe66a0758c6dd1)
C         1.51750491816132    0.96381356570020    0.77406892944823
O         2.72983405283912    1.27212691222936    0.09888278305484
C         2.95185381329381    0.78279911080236   -1.15886624700063
C         1.93963496883883    0.05431811856726   -1.78528282392994
C         2.32180796777467   -0.64462300935253   -2.93459477431413
C         3.63526011287269   -0.58849582196049   -3.42098631814928
C         4.55312433742649    0.33190397587710   -2.89770125803502
C         4.22631165665364    0.96789313771483   -1.68832715249054
C         4.17886630276361   -1.44548503404654   -4.54557919825901
C         4.79718599575262   -2.72193864963757   -3.91560053921072
C         3.98787468094267   -4.01932985936253   -4.07821689964125
C         4.94752778782636   -5.20357538854697   -4.14507381060956
C         5.82043944107655   -5.22837183918500   -5.38473834210816
C         6.26633755724131   -3.81515489821559   -5.70070099540785
C         6.22147096361744   -2.99718780321402   -4.42274263044798
H         1.67371739905033    1.26561737048502    1.81490920678346
H         1.33116219737783   -0.11262513173692    0.70663063908828
H         0.65843846017056    1.54711686323104    0.42655223614890
H         0.97329549858210   -0.09330135558704   -1.31108259699694
H         1.57691948892276   -1.28666464547482   -3.40138894626460
H         5.59117255919476    0.33295264421775   -3.21473641594597
H         4.95439637299716    1.48101483307594   -1.06712560396847
H         4.93224448858370   -0.93828848810259   -5.16556169454447
H         3.39876374458260   -1.76846701956891   -5.24827778873461
H         4.99300104477574   -2.44764339005692   -2.86530829266191
H         3.55711669491342   -3.86336018021195   -5.07331682930825
H         3.12210258811694   -4.14885359574955   -3.41211026427308
H         4.28813973180136   -6.07999201888283   -4.10415122262741
H         5.57434266293068   -5.25457409013075   -3.24520888331558
H         5.27313002242540   -5.53197662622186   -6.28639122437802
H         6.74749126793822   -5.81281393493734   -5.38507213344663
H         5.70453868147864   -3.32406888443271   -6.50262826536395
H         7.30479773595810   -3.74876407880197   -6.05026382923390
H         6.75506056771823   -2.05634167569017   -4.59122414397048
H         6.82567544502196   -3.46181794223748   -3.62931856444594
