35
 energy: -44.222413830988 gnorm: 0.089249802342 xtb: 6.4.1 (025e99ea0bd20707e8cccc6e19fe66a0758c6dd1)
C         1.10463797305149    0.35926083367165    0.58555962602682
O         2.35258611348983    0.86706538989258    0.13230986674870
C         2.89600868362110    0.45662592234425   -1.05381762394938
C         2.17777012422067    0.01147934021455   -2.16451431075683
C         2.87772528042376   -0.38818001570235   -3.30724263271882
C         4.27403554385479   -0.33141041645496   -3.41668840259449
C         4.94106609354916    0.26034029819367   -2.33579104772637
C         4.28356601040317    0.54646346811648   -1.12760992558754
C         5.12416345384614   -0.98080327509773   -4.48917093238022
C         5.34249882661258   -2.48545489691899   -4.17791646443135
C         3.99093037639544   -3.20655851993428   -4.04403170349096
C         4.31374619635690   -4.65988264189045   -3.71014496917314
C         5.25313402090844   -5.32331133012025   -4.69846205433118
C         5.66226840703082   -4.43390947051048   -5.85492780664565
C         6.16002005176215   -3.10179163074257   -5.32392298404444
H         1.08195537560823    0.52654293010849    1.66738149481546
H         1.06810107498947   -0.70480054077772    0.33172848560971
H         0.27177759099067    0.86764174409526    0.08867110711607
H         1.09357679893515   -0.05349708200816   -2.19230314348250
H         2.27409909315477   -0.41339933607558   -4.21276597043204
H         6.01845411597541    0.38741014802944   -2.36962588430335
H         4.79337674476432    1.11402156842610   -0.35478174161915
H         6.05216489156429   -0.39703047665104   -4.40415337205430
H         4.69568596172319   -0.80452877123517   -5.48516139627873
H         5.90644408656398   -2.52542891336007   -3.23078234264399
H         3.38814434302027   -3.12280024805837   -4.95493038145886
H         3.37232555773388   -2.78592534368265   -3.23753832036832
H         3.36300820178965   -5.20772897871261   -3.68701416969593
H         4.82942110562000   -4.64136980125513   -2.74112933134095
H         4.71003064908667   -6.17308899677393   -5.13161102591418
H         6.12813066269645   -5.75649329206300   -4.20073519211740
H         4.84889393800573   -4.37011922598496   -6.58583380144702
H         6.48310526235488   -5.02226633136501   -6.28511906548887
H         6.00217891213781   -2.37044063490149   -6.12298945115696
H         7.25167471404917   -3.08903854387985   -5.18756527110665
