35
 energy: -44.220729941109 gnorm: 0.091023711450 xtb: 6.4.1 (025e99ea0bd20707e8cccc6e19fe66a0758c6dd1)
C         1.13516018743069    1.28683521921742    0.67590087521171
O         2.48814818818486    1.30452666718648    0.24025668262666
C         2.86351029692263    0.55175687829399   -0.83821817216552
C         2.10522696507149   -0.36075932499885   -1.57305816806686
C         2.67594439605872   -0.90678042553780   -2.72702325157787
C         3.97441317762133   -0.62828166388412   -3.17568881521174
C         4.62542065123318    0.43924883088934   -2.54322880503429
C         4.13888819009269    0.86993793094727   -1.29756933244711
C         4.51875835496684   -1.29818326060547   -4.42050506706941
C         5.11235921081346   -2.70465086246813   -4.14119684749095
C         3.99582722440114   -3.69444599772695   -4.51310376051771
C         4.53126310257674   -5.11315883750325   -4.34456976944981
C         5.71483356195763   -5.41713321561418   -5.24241068792184
C         6.23172185446819   -4.13947826068077   -5.87190569090751
C         6.41409256823621   -2.97905264493002   -4.91044114457987
H         0.94106849123850    0.23548786344577    0.91219202632299
H         0.41194553987222    1.65352542358720   -0.05927982937511
H         1.11120833742681    1.92263809307353    1.56707245501647
H         1.06071845256186   -0.52162322692581   -1.32087946462639
H         2.09593774101772   -1.56412810287096   -3.37235992224911
H         5.51943481066666    0.97689336222682   -2.84278436179652
H         4.59627335521221    1.64552681500979   -0.69048343530878
H         5.33831342948758   -0.66431969539420   -4.78895016090884
H         3.74908722482787   -1.34386736963523   -5.20292565778452
H         5.34055770120722   -2.82284022444293   -3.06851239048800
H         3.66960309311755   -3.53637850897103   -5.54688097872097
H         3.15880595150063   -3.61650125044889   -3.80362805807962
H         3.78081972841634   -5.91266626664400   -4.39143114945384
H         4.90209860323936   -5.12199735167573   -3.31129460952789
H         5.38131748069256   -6.08421466309298   -6.04768750527770
H         6.60134343533272   -5.74586448530047   -4.68830441512352
H         5.57795253811168   -3.76683431233093   -6.66789122149489
H         7.21532163829143   -4.26774416430196   -6.34209797215622
H         6.56843357656576   -2.07219296702499   -5.50380418640776
H         7.16351109430853   -3.23178637988835   -4.14561207742444
