35
 energy: -44.232625649763 gnorm: 0.076616162964 xtb: 6.4.1 (025e99ea0bd20707e8cccc6e19fe66a0758c6dd1)
C         2.47204977824661    1.43024418100320    1.06873577128617
O         1.67650057913136    1.10965811052440   -0.06484326070205
C         2.32915264430001    0.48380610440347   -1.09101167352818
C         1.60891369954181   -0.17129114188371   -2.09089801880482
C         2.22092893355880   -0.75434048748030   -3.20489247463992
C         3.59224925064873   -0.65554423653913   -3.47802868515333
C         4.31255872043869    0.02834104423765   -2.48964974920495
C         3.69909675117670    0.53978361934345   -1.33381008243789
C         4.25322525404566   -1.26195823684308   -4.69869247029720
C         5.06919290229058   -2.55684800523248   -4.44182005175439
C         4.22855138335237   -3.80087496092799   -4.10959784477706
C         5.01075601009767   -5.04978643240811   -3.71435430114481
C         6.39031816009673   -4.96585475850931   -4.33815035426433
C         6.30254217485491   -4.39294641440791   -5.73811858752573
C         5.87856391753051   -2.93611283868371   -5.69186789120615
H         3.03790648668390    0.54345921766382    1.37247080436145
H         1.73731290460628    1.77780014269994    1.80178309845013
H         3.17121259664801    2.25428752652512    0.89229970409436
H         0.52252886123650   -0.17668222414588   -2.10532874265330
H         1.55409996871021   -1.19512586276061   -3.94382446299425
H         5.38316160912511    0.20668572264175   -2.48196125017915
H         4.36804988435771    1.01853850831777   -0.62487564272291
H         4.97365548748908   -0.55087376634616   -5.12827886425175
H         3.51873311283254   -1.42961773523479   -5.49811366538853
H         5.70853257563176   -2.42698088871898   -3.55239634484327
H         3.47859771578392   -3.95825794947243   -4.89247902340234
H         3.68501914111840   -3.59335711828925   -3.17603220068053
H         4.36126262123150   -5.89675790564716   -3.97003190364058
H         5.12255285968798   -5.05361042197344   -2.62222725554125
H         6.87680729071446   -5.94720010757893   -4.40879748751126
H         6.96229807280085   -4.26207013955255   -3.72290735033468
H         5.67638397149126   -5.05079689303824   -6.35051506590665
H         7.31784934900032   -4.41349941643092   -6.15492834456874
H         5.24279304526369   -2.74436138365876   -6.56211044219796
H         6.74122127967608   -2.25339325988590   -5.67836896762566
