35
 energy: -44.226327562441 gnorm: 0.099497323944 xtb: 6.4.1 (025e99ea0bd20707e8cccc6e19fe66a0758c6dd1)
C         0.99746708048496    0.86659833967522    0.54788188729477
O         2.26787621165842    1.22788325131227    0.02232577126684
C         2.77188639554356    0.65430017232368   -1.11241793101641
C         2.07476435030061   -0.30450896334770   -1.84887916126471
C         2.79333848037874   -0.87666527525890   -2.90328952330200
C         4.10103499646264   -0.51550463523067   -3.25595979636897
C         4.67244231403587    0.54491826929273   -2.54011436664895
C         4.04767828414447    1.11935845965905   -1.42048817127409
C         4.82123239777374   -1.29306367804631   -4.33825593766845
C         5.37572031033657   -2.67373677490016   -3.89688182123616
C         4.25029124624463   -3.71891868456948   -3.82166864588203
C         4.72721525062504   -5.15195842836692   -4.03796008761882
C         5.29579682046597   -5.24496416448152   -5.44060854669353
C         5.86056625949353   -3.92519298459862   -5.92545817551810
C         6.51938692204181   -3.11540154361384   -4.82343552709813
H         1.05340444949277   -0.14544470305677    0.96197879198774
H         0.27666125158869    0.99956868129470   -0.26498319877394
H         0.88499831023538    1.64954432534919    1.30508207982758
H         1.04175317241505   -0.51534759498068   -1.58638287909278
H         2.23805914668694   -1.54596377457159   -3.55802418963123
H         5.61470685462160    0.89114978912910   -2.95281009388491
H         4.52264138738770    1.93213098290970   -0.87909787689141
H         5.54920596607171   -0.68773825116439   -4.89757777515999
H         4.17031517022304   -1.53212421666844   -5.19020633988873
H         5.82037921462471   -2.54903123832572   -2.89517218055214
H         3.51689864094586   -3.60390928033172   -4.62728081808887
H         3.64908346671744   -3.57782256252755   -2.91135174856202
H         3.88341359349992   -5.82642417318157   -3.84387737941468
H         5.53143094285340   -5.45100714015311   -3.35307934614811
H         4.47770711022212   -5.54568304182966   -6.10769082727305
H         6.00952639515978   -6.07610321407981   -5.41239970766302
H         5.13295700745543   -3.25523711216350   -6.39621788215899
H         6.62585929630489   -4.05085084526416   -6.70233533942931
H         7.04921497501250   -2.20990292849769   -5.13592522687344
H         7.20165847389383   -3.81157911517899   -4.31323136542406
