35
 energy: -44.220111419556 gnorm: 0.089809105182 xtb: 6.4.1 (025e99ea0bd20707e8cccc6e19fe66a0758c6dd1)
C         1.51137977657536    1.00705741724658    0.92535825559561
O         2.41324741228429    1.62330205480728    0.01565902242175
C         2.72896523716731    0.88425429149844   -1.09104677757139
C         2.02743024385127   -0.20393374226937   -1.61197354259778
C         2.49418336573538   -0.89155555459248   -2.73661152789962
C         3.71708038521792   -0.60295232289075   -3.35799270059410
C         4.46549648288826    0.40660298846288   -2.73822728323972
C         4.00275914128354    1.10298466594102   -1.60915635770942
C         4.41554949765852   -1.35268980894181   -4.47364583345950
C         4.93623529290167   -2.73040571509035   -3.98445123910415
C         4.02256424635317   -3.87752109597437   -4.44703566885757
C         4.71138229413656   -5.23889319095984   -4.44094302998057
C         5.78989470715675   -5.30319698780090   -5.50491378414686
C         6.39992361220092   -3.92667216043625   -5.67486608251253
C         6.36701180054066   -3.11489719337472   -4.39260285899068
H         1.92102086881420    0.14922400850109    1.46863753304418
H         0.54610834522882    0.72896176452757    0.49072545332616
H         1.31908838646520    1.77163353373232    1.68526164015548
H         0.97700767613243   -0.34517926319929   -1.37295166465623
H         1.93598867064364   -1.77714464905760   -3.03514751509139
H         5.46002806367932    0.49612799483488   -3.16360793916949
H         4.61049372464815    1.84150625224087   -1.09482463135897
H         5.26350296949186   -0.76798147870352   -4.85873854767966
H         3.81047847548412   -1.43121082815847   -5.38709324229662
H         5.00968044821820   -2.77225513676112   -2.88465596050146
H         3.80885161560750   -3.60908791899585   -5.48740742629740
H         3.09667784826946   -3.80096441537317   -3.85804566994963
H         4.01303964086040   -6.07740642833685   -4.55835880763948
H         5.06051475483914   -5.40714664192423   -3.41378581504472
H         5.39782051758226   -5.75634432831359   -6.42449885576077
H         6.60913540797817   -5.96488338311381   -5.20157642590293
H         5.81066883494019   -3.28166450236461   -6.33563436630678
H         7.36547658596390   -3.95063530684804   -6.19653137675789
H         7.01424210590387   -2.25779948269687   -4.60419625544451
H         6.79741146717865   -3.65935024408763   -3.53890913696039
