35
 energy: -44.220056403154 gnorm: 0.093800435536 xtb: 6.4.1 (025e99ea0bd20707e8cccc6e19fe66a0758c6dd1)
C         1.88171359451865    2.42409968683905    0.39932723081919
O         3.07493773227990    1.80482167164038   -0.06261028693658
C         3.03829346223480    0.75923456096120   -0.94355969451351
C         2.01609361379614   -0.14811998049091   -1.22548954860251
C         2.24516733644985   -1.11663121127222   -2.20783574855663
C         3.43374405654246   -1.23446533706159   -2.94151415131851
C         4.47280090393114   -0.34016292452208   -2.65164899956804
C         4.23936398527953    0.59371722082067   -1.62829689599005
C         3.56644598412336   -2.12728033549762   -4.15803331795496
C         4.19131188235947   -3.52433723166074   -3.90054389701037
C         4.07833860400757   -4.27802766711427   -5.23614885398938
C         5.17210391933831   -5.29866580823568   -5.53584307160092
C         6.43383639809721   -4.47884654542435   -5.72368688467358
C         6.49959329868997   -3.20334522272655   -4.90844946158425
C         5.69684302890914   -3.37425354841791   -3.63148309195928
H         2.24131757465255    3.28624685153363    0.97048710376164
H         1.22769973082482    1.80656538118118    1.02295295625794
H         1.42023227910385    2.86304619644950   -0.49138412875403
H         1.03724671439060   -0.07078092069371   -0.76035866809428
H         1.36896081362041   -1.74904166963761   -2.33933570800071
H         5.39131760247415   -0.14147846182830   -3.19470336595840
H         4.92945095308811    1.42907373549787   -1.55582579637066
H         4.22689964288893   -1.57500002269391   -4.84213327135968
H         2.65036739760544   -2.25578798585158   -4.75044235474690
H         3.74791073994927   -4.05124322065042   -3.03888229240022
H         4.03377545565244   -3.48243851009389   -5.98791668453941
H         3.09624552518154   -4.77259744034183   -5.26663968622160
H         4.99305214710660   -5.83854144402876   -6.47448471588557
H         5.31551322096315   -6.02163782664754   -4.72220932400648
H         6.49740108863702   -4.26805521712155   -6.79896728194191
H         7.27740379673405   -5.08174018898670   -5.36884739508467
H         6.04982153699978   -2.43641236514664   -5.54828549556064
H         7.56770205150805   -2.95873739823855   -4.84278241029119
H         5.92917619368126   -2.53257159509028   -2.97126486294554
H         6.05337250206417   -4.22668191436714   -3.03422386450453
