35
 energy: -44.229678933214 gnorm: 0.086606573419 xtb: 6.4.1 (025e99ea0bd20707e8cccc6e19fe66a0758c6dd1)
C         1.06153209073110    1.05434831406850    0.60690336787232
O         2.15473727174984    1.53504646314816   -0.16413949306187
C         2.75301662805608    0.82750726273271   -1.17017983520076
C         2.12404300175034   -0.29113658757513   -1.71853862995279
C         2.82196264785225   -1.02773753133491   -2.68073406911930
C         4.08196089058505   -0.66006500077518   -3.17277560074233
C         4.65709458723501    0.48437377365408   -2.60451608345752
C         3.99613214463721    1.25260563460158   -1.63146782656855
C         4.72150522617943   -1.43263359839733   -4.30801484338854
C         5.29670018062744   -2.78038988805115   -3.79690827043432
C         4.19142990295202   -3.84870382115679   -3.83857108935043
C         4.71740846916965   -5.22342310792489   -4.24023616948543
C         5.32794929877810   -5.15669795224505   -5.62665076065970
C         6.09909460116619   -3.88040624803145   -5.89545191092384
C         6.53148057800963   -3.18344856850952   -4.61812927279709
H         1.43458355029282    0.11629701809927    1.03084762327725
H         0.22468472861171    0.84860912748230   -0.06789266077063
H         0.67084852340136    1.66212461933155    1.42969135766497
H         1.14179835243670   -0.56910666709121   -1.34652060412505
H         2.37443806027845   -1.93929450168372   -3.07285489056328
H         5.58307431747618    0.87256691524763   -3.01673461736102
H         4.44009406633144    2.20521448298530   -1.35810584371317
H         5.50972398086151   -0.83223427261055   -4.78491857388671
H         3.97358651988002   -1.51746837789136   -5.10806693172335
H         5.54810024540568   -2.54090704898544   -2.74994064822655
H         3.42144826902166   -3.56119144787606   -4.56284159833450
H         3.66366959355883   -3.99778873400167   -2.88501012594840
H         3.87758657640385   -5.92972551604148   -4.26047161168445
H         5.40682747168700   -5.61719763355301   -3.48201607963957
H         4.48892170941768   -5.20805773029848   -6.33241011352657
H         5.94319205486596   -6.02956294980310   -5.87278245647711
H         5.48799922201018   -3.13044076018835   -6.40924661806090
H         6.92573662317478   -4.14126045137119   -6.56896472439142
H         7.13862438253864   -2.32224757173755   -4.91478490611890
H         7.22981352848298   -3.81488860233656   -4.04884854856157
