35
 energy: -44.218808158878 gnorm: 0.104501538581 xtb: 6.4.1 (025e99ea0bd20707e8cccc6e19fe66a0758c6dd1)
C         0.82088725158134    1.21283246495744    0.11834435568139
O         2.11704572313309    0.63005738238237    0.08637885808671
C         2.70116072832197    0.13550167652571   -1.04715163673235
C         2.01422687543757    0.13343491658969   -2.26197131177312
C         2.71407320976893   -0.25141691301404   -3.40983759767844
C         4.08777789486324   -0.52574061290978   -3.35918733812156
C         4.74366979724380   -0.42670818228746   -2.12491179212657
C         4.06465174605133   -0.12278769497083   -0.93308912623721
C         4.81674496957929   -1.05375517071306   -4.57756943890358
C         5.63440885648031   -2.32101259715528   -4.21149491415477
C         4.82714109947656   -3.30052190164461   -3.34343205655863
C         5.32398206926950   -4.73971880791027   -3.44193444155154
C         5.30490443491271   -5.20676743156813   -4.88445286296065
C         5.22406671313880   -4.12553701770747   -5.94286946565100
C         6.13326926758879   -2.99347900571827   -5.50008720131274
H         0.08636474349516    0.40723963239228    0.21999684587109
H         0.76325481480249    1.97158049341745   -0.66840321000027
H         0.93175112720695    1.73678301116814    1.07343115735679
H         0.95046150142641    0.35426306830260   -2.27233832980885
H         2.13954665076307   -0.31544567661710   -4.33222181467190
H         5.81745030533848   -0.55169310519558   -2.02780013380976
H         4.60863341624096   -0.19551812392732    0.00397373220591
H         5.32378369878345   -0.21454092734522   -5.07540123300976
H         4.13809078399690   -1.52433469890421   -5.30189400335605
H         6.52404785548442   -2.06973430089527   -3.60975004284853
H         3.82925779209786   -3.18693978979612   -3.78096018299287
H         4.78891819102951   -2.93516496074830   -2.30656703106897
H         4.63131903657528   -5.39890100923029   -2.90316721503229
H         6.36510532273944   -4.83065934703593   -3.10571006435529
H         4.50136917528447   -5.94387135211204   -5.00979353192083
H         6.22228735711726   -5.75968480693209   -5.11616111668288
H         4.16059663837857   -3.87466947560627   -6.02012017544086
H         5.40449406412879   -4.56403557236694   -6.93290302359583
H         6.31339135319105   -2.19206385698165   -6.22367901597212
H         7.04634494481626   -3.58049260503834   -5.32071660263890
