35
 energy: -44.216333409842 gnorm: 0.102223776433 xtb: 6.4.1 (025e99ea0bd20707e8cccc6e19fe66a0758c6dd1)
C         0.89806365594491    0.48892417630135    0.43119468106047
O         2.30461111072560    0.45408963415417    0.22849743920168
C         2.86530805282985    0.27365597161054   -1.00589702299675
C         2.13764065142040    0.14475861295197   -2.18976984396501
C         2.85549786075934   -0.01241572655090   -3.37950516141152
C         4.22966160629019   -0.28761143201661   -3.40822661088577
C         4.92383963289766    0.07259789205002   -2.24555557528568
C         4.25566358546582    0.34167137967422   -1.03931567483002
C         4.91454310251161   -0.95560518535285   -4.58269206657192
C         5.48479401431547   -2.38828302355433   -4.40726576790527
C         4.45790689679768   -3.19902051634061   -3.59926794258437
C         4.95189612865076   -4.63183134315484   -3.42357151863566
C         5.19555978345789   -5.33724603410360   -4.74356240899095
C         5.26809152102955   -4.42205883888756   -5.94897156816036
C         6.00661768289509   -3.13055698240516   -5.64753686140051
H         0.78631239897431    0.69021491122673    1.50162919526072
H         0.25128976463757   -0.34839980538683    0.15090220496004
H         0.52135114539330    1.37241055341617   -0.09468103678446
H         1.06303697894916    0.30420639593855   -2.17325695523651
H         2.29885983303974   -0.17366839219799   -4.30098484991757
H         5.99307485496300    0.19390992684404   -2.38724519394749
H         4.82958242679240    0.55591465515415   -0.14264987459345
H         5.74358689282080   -0.30362924460576   -4.89384979176400
H         4.27876241860192   -0.93802103179680   -5.47831276172411
H         6.34810327153271   -2.38806620132078   -3.72068558671569
H         3.54246640801022   -3.07592478945852   -4.18826627330527
H         4.22043355435856   -2.81160476458513   -2.59749389430901
H         4.35684858870879   -5.24137827196484   -2.73151345346887
H         5.89650611756889   -4.47928855117061   -2.88533613657070
H         4.37823086025906   -6.05688887433065   -4.88063545166814
H         6.07053074597153   -5.96811502903014   -4.55009946572756
H         4.23630476077736   -4.18556927243603   -6.23067989690111
H         5.87334951289103   -4.82394491974948   -6.77186391835579
H         5.95209979807646   -2.45049139862982   -6.50359407599029
H         7.05305543440210   -3.46512664148661   -5.58839993859134
