35
 energy: -44.225132139260 gnorm: 0.097718284256 xtb: 6.4.1 (025e99ea0bd20707e8cccc6e19fe66a0758c6dd1)
C         0.79207365665126    1.11216234850624    0.30525565095131
O         2.19997546501154    0.97214519596682    0.16783997237703
C         2.76906497454777    0.38002822706720   -0.92587008724510
C         2.08411093322702   -0.11088911381383   -2.03830316994016
C         2.78401102444858   -0.71189313430919   -3.08922032550361
C         4.16118709393920   -0.54282763297656   -3.28843490476542
C         4.80388304964043    0.11561988373588   -2.23163477103848
C         4.12383585680291    0.63753771892784   -1.11852559763597
C         4.90954692431334   -1.13794867702296   -4.46335439806771
C         5.54674645319058   -2.50452622033916   -4.09597346834029
C         4.48998365293854   -3.49448317388487   -3.57839212570215
C         5.00670963925369   -4.91660752368953   -3.77434618555819
C         5.23200805977738   -5.32261125698492   -5.21786943055336
C         5.41077405357207   -4.05545390980112   -6.02916137948451
C         6.32902868540816   -3.11558909259170   -5.26908025486006
H         0.27853306283228    0.14647500563511    0.35585573441317
H         0.35799413057753    1.61023210630406   -0.56738017320084
H         0.65429697224148    1.64705025023924    1.25072817132850
H         1.01627042378592   -0.22916651125113   -2.20015627327718
H         2.30261761268897   -1.20826405767285   -3.92996368347278
H         5.86840155040425    0.27071638756915   -2.37586351340482
H         4.63319843234219    0.90434879202500   -0.19730130227812
H         5.64615829627160   -0.42125015318327   -4.85444547374630
H         4.22385038555678   -1.36526781489600   -5.29088623086300
H         6.25928486265786   -2.18724021207815   -3.31602870967836
H         3.56432047533787   -3.31253820059628   -4.13530016023790
H         4.30311524873452   -3.40295621375002   -2.49823529426497
H         4.36771198179825   -5.63228175584487   -3.24136798470383
H         5.99376234666240   -4.86261739704616   -3.29678293064334
H         4.45010090525840   -5.98786234775225   -5.60615228341733
H         6.12510377189242   -5.93519757965117   -5.38554712898511
H         4.43085052069388   -3.58049110071106   -6.14761388104452
H         5.81435625349930   -4.34118584797461   -7.00920225867128
H         6.56808757420309   -2.29792561692457   -5.95651942197147
H         7.26066401850836   -3.60512609554966   -4.94833877731435
