35
 energy: -44.223041218148 gnorm: 0.081898981293 xtb: 6.4.1 (025e99ea0bd20707e8cccc6e19fe66a0758c6dd1)
C         2.34938005026480    2.35050089644476    0.34160830182919
O         2.20557014574800    0.93658287565503    0.31279988368380
C         2.65792643408546    0.33889988713524   -0.83123504439086
C         1.72385327047923   -0.27169974418934   -1.66929510966052
C         2.20281510284015   -0.96561467533255   -2.78489830536467
C         3.55062178837308   -0.84653440141410   -3.15112306550208
C         4.45340217311029   -0.12052409728360   -2.36287539945864
C         4.02167230325821    0.35166078647126   -1.11206557552105
C         3.96556214256676   -1.58190881278083   -4.40877815785395
C         4.98763462995319   -2.68100192273811   -4.01395116142194
C         4.41554681918578   -4.09982012714057   -3.85799193575137
C         4.33732464870198   -4.93028922786664   -5.13550662072477
C         5.73794936009379   -5.19952354302347   -5.65040570853407
C         6.69386903375680   -4.15366740219098   -5.11352382221391
C         6.11575393878517   -2.75130228448233   -5.05507918070736
H         1.53273772017779    2.83745806223051    0.88456721353790
H         2.41426066127695    2.79195038624361   -0.65784387612804
H         3.20115560887384    2.68951620089044    0.94040107845069
H         0.66488782325972   -0.11543933944806   -1.48316558546367
H         1.59063280737481   -1.46820258947169   -3.53163208409833
H         5.50274011045601   -0.03178815717364   -2.62569153608412
H         4.78816518723576    0.79028730647242   -0.48009404461629
H         4.48946711877097   -0.85121650913530   -5.04187978240359
H         3.07318195038809   -1.96702858874117   -4.92064046914799
H         5.29029461117851   -2.44130053556259   -2.98068671958749
H         3.41974280124011   -4.00741914334836   -3.41084624517833
H         5.02523491077956   -4.52961633536584   -3.04954192563211
H         3.80455059231374   -4.30425528094435   -5.86269757134935
H         3.77147465550847   -5.85779607317019   -4.97802811490347
H         5.80939114120607   -5.29888674282922   -6.74115059730135
H         6.07507091211844   -6.18637061403854   -5.31353825371518
H         7.58900134830846   -4.12022118132735   -5.74399212934094
H         7.09112218119577   -4.41574497372191   -4.12432882558585
H         5.71284891961318   -2.41613366506266   -6.01613321876978
H         6.94259731701538   -2.06366955474453   -4.82279223027260
