35
 energy: -44.223910809175 gnorm: 0.085589707689 xtb: 6.4.1 (025e99ea0bd20707e8cccc6e19fe66a0758c6dd1)
C         2.52705750557637    1.32995521440482    0.71483421746049
O         3.33439855723440    1.64943590831528   -0.41069138691977
C         3.35162672165937    0.80024207471083   -1.48271754738035
C         2.46164059191573   -0.27414498218604   -1.51858371442216
C         2.46792516768857   -1.18299519750355   -2.58133703681366
C         3.34051994325185   -0.94819372702501   -3.65293870520904
C         4.12304960542104    0.21403379674460   -3.67060875385422
C         4.19199957436183    1.07099818438615   -2.55942363578091
C         3.50898046177456   -2.10562415303374   -4.61555138235905
C         3.78348012006101   -3.47158416977018   -3.93193648681330
C         3.92742926609690   -4.61969677245634   -4.94473899430946
C         5.40446304431191   -4.88369518688854   -5.22135688424180
C         6.25586548103874   -3.62971696687037   -5.17652071988495
C         6.30989654073027   -3.19500192361255   -3.72602317685695
C         5.00245208680801   -3.44541184299377   -2.99654073970623
H         2.93136088395944    2.07664383912814    1.40608759709588
H         2.60563997873283    0.30776752244189    1.09817338217566
H         1.47962079079529    1.53154806373750    0.46736215927392
H         1.76255732348897   -0.29540859472805   -0.68713932688257
H         1.73184197724433   -1.98460438036985   -2.60536507967972
H         4.76319448228299    0.49197004427651   -4.50188635851406
H         4.90688859895350    1.88646887407615   -2.50255707813464
H         4.31893478776466   -1.94044979078134   -5.34073876154220
H         2.59208445288998   -2.21196978785022   -5.21108053938874
H         2.99520336837602   -3.68852286172046   -3.19149568277561
H         3.40863685975286   -4.28645060350079   -5.85022465428172
H         3.38167325651433   -5.55300663355025   -4.74196117943373
H         5.37187900163988   -5.31705415891714   -6.22918209590193
H         5.83816924224474   -5.61188683711853   -4.52358149322258
H         5.80812433790069   -2.83632073289793   -5.78869036160566
H         7.24975745085751   -3.83785930774816   -5.58865332177232
H         6.74071389317099   -2.18895009298341   -3.67990467570901
H         7.11691459429173   -3.76991902614917   -3.25358943227989
H         4.87629283122574   -2.80280064364527   -2.11936914599051
H         5.06619608468360   -4.44693579335597   -2.54559457134518
