35
 energy: -44.213276086273 gnorm: 0.106802756269 xtb: 6.4.1 (025e99ea0bd20707e8cccc6e19fe66a0758c6dd1)
C         1.07894351827861    1.16704137642173    0.53448796593816
O         2.45064198884483    1.21814886176248    0.16501981244630
C         2.79807890606051    0.55356337729095   -0.97878122422151
C         2.05655236214045   -0.32651348420757   -1.76825723003989
C         2.62892734579791   -0.94310692879593   -2.88525868748414
C         3.90932663900618   -0.60064281629481   -3.34152563516651
C         4.66007656206696    0.28441983754663   -2.55636550138838
C         4.06509039059319    0.89879964304766   -1.44173400004891
C         4.59891824123803   -1.25997339255496   -4.51812835805051
C         5.22044434216866   -2.56242906009350   -3.94730374585410
C         4.24001093765152   -3.73198444908238   -3.75877424198515
C         4.86071782741934   -5.09426823187884   -4.05330312012185
C         5.28787776087030   -5.21868966650100   -5.50292771563019
C         6.07730905254078   -4.00560869220430   -5.95133872750903
C         6.38775708494758   -3.02983267710101   -4.83073891066757
H         0.93140330215912    0.08234166706601    0.55673175152331
H         0.42766057722398    1.44569696776384   -0.29988209278445
H         0.91714805049639    1.75831983194759    1.44180146452474
H         1.04113458195312   -0.49912488403588   -1.42242291959901
H         2.08476950036572   -1.52078613345326   -3.63034397773242
H         5.52417501850108    0.83091309872530   -2.92069431234002
H         4.52169701598934    1.59167319774609   -0.74121331951296
H         5.46340482946939   -0.62800698670560   -4.76810182361644
H         3.88813793764838   -1.41946461446626   -5.34033063668709
H         5.72955795031622   -2.37743873313160   -2.98643063198148
H         3.44317103353142   -3.59672912156310   -4.49827070402101
H         3.89519836816935   -3.63616964457656   -2.71860137959420
H         4.19411448196920   -5.88923525436571   -3.69519588840117
H         5.76700037200525   -5.22686297642738   -3.44805504974484
H         4.44173025528239   -5.30995471163516   -6.19604132603820
H         5.90841875157727   -6.12094455037796   -5.54608751401798
H         5.54490154374362   -3.46522679849163   -6.74152886264442
H         6.97004852330076   -4.43353379021614   -6.42557264224764
H         7.01901555657272   -2.22470209047225   -5.22006242937267
H         7.12369937087254   -3.52951860516737   -4.18330636831709
