35
 energy: -44.217571093661 gnorm: 0.083865842894 xtb: 6.4.1 (025e99ea0bd20707e8cccc6e19fe66a0758c6dd1)
C         2.26238933846426    1.90946452224488    0.67376925981430
O         1.56701117970196    1.44486867113004   -0.47569813150161
C         2.06683275507621    0.40694777352942   -1.21296718932127
C         1.41938775853879    0.15524607700904   -2.42339292990863
C         2.10041359038453   -0.51324379690571   -3.44555628587350
C         3.40896998043550   -1.00111670450486   -3.32495906357611
C         3.95504208562765   -0.89521834884570   -2.03886866418815
C         3.28881673217544   -0.22535698404194   -0.99901100356411
C         4.15050972147007   -1.75243252862988   -4.41137087585887
C         5.44442394549673   -2.46013220696295   -3.92818013567051
C         5.09690689585632   -3.78302468548294   -3.22544248273606
C         5.68446129658368   -5.00952310225923   -3.91705137248713
C         5.47558511085571   -4.99416364083705   -5.41888111996088
C         6.25570167166284   -3.87120761710190   -6.07174218035020
C         6.46932500479536   -2.79441706879103   -5.02333961783045
H         2.37086715180403    1.06310692383239    1.35987984469236
H         1.63157628626989    2.67709309364601    1.13291310611301
H         3.22607774677927    2.34047266820650    0.38300750892810
H         0.55694942416886    0.77030353593831   -2.66499956277897
H         1.70444459651150   -0.46775102000755   -4.45852818008932
H         4.96160731927035   -1.24416068562668   -1.83120991334719
H         3.91041683816347    0.11639408736515   -0.17675065072974
H         4.41423250973338   -1.04528540163040   -5.21111992611569
H         3.48114077217250   -2.51249910011140   -4.83670213113899
H         5.91851328873102   -1.68312289611714   -3.30513034574217
H         4.01232857868574   -3.93721023508751   -3.22102231042252
H         5.35076386550314   -3.74423966585331   -2.15582193193449
H         5.17794869745819   -5.89881839648162   -3.52060182888513
H         6.74254322698925   -5.09570722676570   -3.63724864632661
H         4.39236386104210   -4.98123069386209   -5.59541963461835
H         5.80989811547400   -5.94821885690841   -5.84197829812200
H         5.76342400189646   -3.56709404156683   -7.00182197273859
H         7.25997890204977   -4.16696037667560   -6.40183156944795
H         6.71245617830234   -1.85824917337945   -5.53595274672231
H         7.34916642473268   -3.01298893132529   -4.39998467581146
