35
 energy: -44.235879967504 gnorm: 0.049068892763 xtb: 6.4.1 (025e99ea0bd20707e8cccc6e19fe66a0758c6dd1)
C         1.31431000000000    0.33713000000000    0.73017000000000
O         2.29775000000000    0.97899000000000   -0.07079000000000
C         2.68903000000000    0.33615000000000   -1.21286000000000
C         3.65859000000000    1.01175000000000   -1.95528000000000
C         4.12295000000000    0.48768000000000   -3.16574000000000
C         3.62649000000000   -0.72403000000000   -3.66591000000000
C         2.67139000000000   -1.40857000000000   -2.90261000000000
C         2.20719000000000   -0.88165000000000   -1.68575000000000
C         4.03991000000000   -1.19168000000000   -5.04614000000000
C         4.95729000000000   -2.43537000000000   -5.18818000000000
C         6.29325000000000   -2.28784000000000   -4.44112000000000
C         6.89749000000000   -3.51500000000000   -3.76524000000000
C         6.25951000000000   -4.85043000000000   -4.09534000000000
C         4.74600000000000   -4.77969000000000   -4.08425000000000
C         4.20021000000000   -3.76792000000000   -5.07556000000000
H         1.10880000000000    0.98484000000000    1.58870000000000
H         1.68502000000000   -0.61812000000000    1.11496000000000
H         0.37523000000000    0.20706000000000    0.18225000000000
H         4.04101000000000    1.96405000000000   -1.59842000000000
H         4.86169000000000    1.05600000000000   -3.72810000000000
H         2.24512000000000   -2.34125000000000   -3.25822000000000
H         1.45007000000000   -1.44158000000000   -1.14488000000000
H         4.54951000000000   -0.35506000000000   -5.54572000000000
H         3.12516000000000   -1.34395000000000   -5.63496000000000
H         5.24293000000000   -2.40329000000000   -6.25311000000000
H         6.23808000000000   -1.49170000000000   -3.69064000000000
H         7.03029000000000   -1.91229000000000   -5.16622000000000
H         6.84661000000000   -3.36420000000000   -2.67931000000000
H         7.96857000000000   -3.56586000000000   -4.00073000000000
H         6.58781000000000   -5.58978000000000   -3.35353000000000
H         6.61484000000000   -5.20666000000000   -5.06891000000000
H         4.38794000000000   -4.54109000000000   -3.07691000000000
H         4.34245000000000   -5.76950000000000   -4.33410000000000
H         3.13485000000000   -3.61240000000000   -4.87778000000000
H         4.22264000000000   -4.23977000000000   -6.06920000000000
