35
 energy: -44.220193482293 gnorm: 0.099211702385 xtb: 6.4.1 (025e99ea0bd20707e8cccc6e19fe66a0758c6dd1)
C         0.71731120362424    1.30584780514667   -0.09716503215609
O         2.13492118457611    1.39795625005894   -0.04643671327031
C         2.76060326487570    0.68005615947455   -1.02817419134242
C         2.14947211042372   -0.24794181838035   -1.87257204092774
C         2.74356864157669   -0.95748736231395   -2.92094568299344
C         4.13808933053652   -0.83432241492297   -2.99183993660846
C         4.82756247480349    0.00844991191068   -2.10991059083031
C         4.14272681319580    0.78525148310192   -1.16046132771561
C         4.93680017224856   -1.39917772176397   -4.14840676599996
C         5.63133461475769   -2.73674386496147   -3.77818398498232
C         4.63940591245400   -3.85379202463335   -3.41358324975756
C         4.73136128173082   -5.10337491793386   -4.28417397325539
C         4.78007611410382   -4.79091245625674   -5.76719516121849
C         5.83815774288636   -3.75335648836562   -6.08307572383540
C         6.58829533295251   -3.27707525615661   -4.85233994975047
H         0.35896917121208    0.37734119342068    0.35923700209670
H         0.27870177582064    1.38849481040741   -1.09655636896735
H         0.31692439313951    2.14828215780369    0.47642065018633
H         1.06659217912897   -0.29164868078476   -1.79556482607751
H         2.12855396495592   -1.44195526140180   -3.67726632220457
H         5.91054548281870    0.05767650953299   -2.16264625062580
H         4.68765361183655    1.31616564927586   -0.38555647665350
H         5.82056624610406   -0.77028133080159   -4.32910593515094
H         4.27582026834613   -1.40006935286834   -5.02577068665898
H         6.22608104508324   -2.37934624553618   -2.92072328437488
H         3.59573296395039   -3.52480579191934   -3.46474658452330
H         4.85668081832567   -4.21357574721935   -2.39702874780529
H         3.86310081699346   -5.73387050074721   -4.05358242620594
H         5.55343436619978   -5.71012789462791   -3.88255062740059
H         3.76339480351084   -4.42911949458981   -5.96761061001429
H         4.87868680130483   -5.81052678764934   -6.15663105063381
H         5.26421641833306   -2.92418128064786   -6.51077962516140
H         6.60056684769855   -4.08178046434673   -6.80131767953732
H         7.21103987611498   -2.45204148938626   -5.21262294880201
H         7.17573361209831   -4.09570596607915   -4.41049608724233
