35
 energy: -44.224317924998 gnorm: 0.095159493312 xtb: 6.4.1 (025e99ea0bd20707e8cccc6e19fe66a0758c6dd1)
C         0.86865764725398    1.64296948348183   -0.02807741497222
O         2.07847604498779    0.94436852206499    0.23454687888575
C         2.71964313382710    0.42297781697681   -0.85528042873341
C         2.06960078903861    0.00613868115028   -2.01776024048562
C         2.88935622039927   -0.47095993127034   -3.04531596656510
C         4.27923233778623   -0.63844262777463   -2.97405992251128
C         4.89800450024251   -0.23959746271468   -1.78180103170382
C         4.10128543082778    0.28540362492073   -0.75054597296967
C         4.96879530098840   -1.08756542326648   -4.24584564347590
C         5.23788593783867   -2.61593032449298   -4.26058032366398
C         4.07092368975081   -3.61252358467127   -4.16232657093608
C         4.52727916371194   -5.06421862051561   -4.05204238337173
C         5.75801988612690   -5.33594865023296   -4.89513065332776
C         5.92772212814472   -4.32480224588392   -6.01075771701030
C         6.19910453888194   -2.95747271419795   -5.40990640859023
H         0.00001972336374    1.04933646842785    0.27507989813599
H         0.77163947160480    1.93450377103476   -1.07859492230928
H         0.90148347060840    2.58971001744783    0.52111344082225
H         0.99738386516202    0.05841766749049   -2.18535226051233
H         2.37247830244735   -0.79923939273336   -3.94533980834612
H         5.97500551439769   -0.24635171243937   -1.64734036571659
H         4.51169685185842    0.74405928225351    0.14415510778566
H         5.98402782504453   -0.67326314639533   -4.32868197479940
H         4.38013071538982   -0.82869296104166   -5.13641945182825
H         5.77987722153048   -2.82693183177545   -3.32334021047265
H         3.48855288508789   -3.47262902564672   -5.07959240231650
H         3.43584637303755   -3.43792756590657   -3.28128809654373
H         3.79666851748650   -5.77732736526719   -4.45485422043544
H         4.59652367047093   -5.21049024979980   -2.96619504145534
H         5.80009544286285   -6.34949608835982   -5.31423997475590
H         6.67528637385112   -5.27846156194085   -4.29820922721273
H         5.01270632600410   -4.39272007034477   -6.60909210978247
H         6.62846283479704   -4.71717446753926   -6.75909451097639
H         6.03857404672928   -2.10086468731997   -6.07228694046396
H         7.24036434412905   -2.97556605981070   -5.05505909414221
