35
 energy: -44.230785248791 gnorm: 0.091539080749 xtb: 6.4.1 (025e99ea0bd20707e8cccc6e19fe66a0758c6dd1)
C         0.90315985118530    1.19910926330956    0.46617243877904
O         2.27052735468758    1.33216442852453    0.10110010250386
C         2.72985869101361    0.75602817969720   -1.05117973383089
C         2.02607545090547   -0.14037860611853   -1.85666919489859
C         2.67139575823576   -0.82253090099314   -2.89287515043077
C         4.03648655310092   -0.65141580804048   -3.16144592968915
C         4.72351368991490    0.29604666520731   -2.39089656322138
C         4.08603986549722    0.93257510158546   -1.31278102272462
C         4.75289335261138   -1.31049464217336   -4.32205943428903
C         5.37968051178627   -2.66782384069385   -3.90574047289671
C         4.32989194900276   -3.78817742278136   -3.81969013404084
C         4.98720911059295   -5.14448739156340   -4.05675304626068
C         5.31295706995356   -5.33615608762005   -5.52525879968980
C         5.78683801709063   -4.00244999919756   -6.06609571380157
C         6.37841806260459   -3.11815068127123   -4.98336373996499
H         0.51909520020915    0.19337663408983    0.66575343694197
H         0.30566373903407    1.63989027281854   -0.33800558887316
H         0.81274308037458    1.78395318353805    1.38746944108050
H         0.96294448734096   -0.29015549903394   -1.68996958274728
H         2.07815179434733   -1.37098714566560   -3.62241641059832
H         5.78937283445561    0.47320243529198   -2.49393348928686
H         4.58672292175534    1.53912640203627   -0.56397892496074
H         5.62278810133484   -0.65073769013744   -4.45324336347166
H         4.18261019565572   -1.47657550532665   -5.24610322537917
H         5.98148953074864   -2.64310011417886   -2.98166804025387
H         3.59868496722185   -3.60063022788454   -4.61358260252773
H         3.92640595125790   -3.69232864746595   -2.80084381118176
H         4.36048681504473   -5.96041555950541   -3.67458323408557
H         5.90709030718940   -5.24754226154501   -3.46645403628743
H         4.48810021243546   -5.81424742106400   -6.06907975166745
H         6.14201585780192   -6.05284847095559   -5.52862312987604
H         4.92542786187972   -3.49758427553829   -6.51659981115738
H         6.52083737656803   -4.13642859337689   -6.87126410270232
H         6.94628389682491   -2.29148949090770   -5.42206066400167
H         7.19611365374744   -3.74222478804551   -4.59301594702370
