35
 energy: -44.216048881103 gnorm: 0.097456620368 xtb: 6.4.1 (025e99ea0bd20707e8cccc6e19fe66a0758c6dd1)
C         0.77825921616189    1.44462464477537    0.22688331464554
O         2.18405453716616    1.34280989258437    0.04236054528412
C         2.72733250257199    0.70361906883563   -1.03789462601361
C         1.98759268571060    0.00221553998595   -1.99104065788688
C         2.69279698135647   -0.65806938585927   -3.00208149717423
C         4.09242308472957   -0.72987519869799   -2.97425641018102
C         4.81591648949312   -0.04541262655466   -1.98860634849764
C         4.11346222198101    0.59928403907177   -0.95671552391414
C         4.79398542719578   -1.42221218638277   -4.12452903418636
C         5.47267434745157   -2.78756130061891   -3.83516884851741
C         4.46876936700499   -3.94095285530262   -3.67233290698494
C         5.04558964258063   -5.20095227029905   -4.31070681665386
C         5.04122037816026   -5.06317535731019   -5.82079164915288
C         5.74442851362925   -3.75713730354152   -6.12998830088390
C         6.46807091920773   -3.11906963676357   -4.95803604868857
H         0.28094046298670    0.47341809830839    0.31781327220262
H         0.40909469411146    2.07656147655695   -0.58697490363280
H         0.79932450836578    1.93846618871238    1.20396189706187
H         0.90919662678721   -0.05931443857226   -1.87380015607999
H         2.23751423364214   -1.35004283938670   -3.70838417549598
H         5.89932050003764   -0.10130142519880   -1.95442025718026
H         4.55653217828553    1.16002998141596   -0.13906915058554
H         5.61895634857752   -0.75051255790651   -4.40282369335606
H         4.14359499584854   -1.49464010682859   -5.00680402034869
H         5.93275355651465   -2.74164297151270   -2.83371298347565
H         3.55190296940609   -3.62659919845737   -4.18286267010206
H         4.15743167485071   -4.16329979473970   -2.64099084732018
H         4.53674254852351   -6.15007188663287   -4.09899955608817
H         6.10559697955238   -5.31094400496536   -4.04700071749543
H         3.99174655958454   -5.14029548058091   -6.13281500853932
H         5.69183707209958   -5.84652580094781   -6.22583209734477
H         5.16133204286662   -3.10105575653460   -6.78529456845057
H         6.56774237265106   -4.15086202961989   -6.74001829065746
H         7.03051331042711   -2.22580150497187   -5.24790829844951
H         7.20215135715165   -3.78631364041451   -4.48224479169917
