35
 energy: -44.214871861836 gnorm: 0.100107717704 xtb: 6.4.1 (025e99ea0bd20707e8cccc6e19fe66a0758c6dd1)
C         1.01818292512364    1.20588298501135    0.66725505999887
O         2.25839530927639    1.48523931695646    0.03124511587369
C         2.81148732280437    0.71787447421248   -0.95663518425641
C         2.17928248074594   -0.37408681630933   -1.55296296077494
C         2.77362014165146   -0.96734453151821   -2.67113149539047
C         4.02684290735824   -0.54827044696014   -3.13877787576608
C         4.75475073279456    0.42788716371269   -2.44544948048600
C         4.10146610360661    1.04553002152449   -1.36581485036506
C         4.54576894604049   -1.24543758365335   -4.37947166231234
C         5.21390629988233   -2.62755110695862   -4.15169799293977
C         4.17261441647091   -3.75745449025430   -4.09101535243650
C         4.78060248988336   -5.15676979797792   -4.08059553409362
C         5.51362632567685   -5.42674016349276   -5.38026850220562
C         6.04655533225986   -4.18180739763356   -6.05995131654314
C         6.36125224507566   -3.07342315091129   -5.07166443171890
H         1.09141040142612    1.98552565377658    1.43252063752503
H         0.95590903440677    0.19462361946138    1.08134231572706
H         0.07633857460126    1.25201177009042    0.11065186509058
H         1.11031556703830   -0.49334205623458   -1.39947924279762
H         2.25814867261818   -1.65551435401575   -3.33872760579112
H         5.72113666722114    0.75600783318270   -2.81489709286733
H         4.59037131902434    1.90128824945173   -0.90980813537415
H         5.21066210441407   -0.60856698234181   -4.98073553184838
H         3.59428985449780   -1.52878838524999   -4.84964454763519
H         5.67193035953967   -2.48160932952291   -3.15891897502311
H         3.51712291183963   -3.72328799690665   -4.96809367673440
H         3.54969549335489   -3.67540144149766   -3.18808951079574
H         4.07892855885668   -5.99750112432819   -4.00712509465407
H         5.58818696831984   -5.22124147796663   -3.33971406274834
H         4.81004343557528   -5.86717670017782   -6.09838281035662
H         6.37401352613201   -6.10023875513223   -5.29582162239127
H         5.30755078587240   -3.74177155552185   -6.73826653248041
H         6.96687372893178   -4.38070852716453   -6.62426846626733
H         6.63490113476883   -2.22149385996223   -5.70224201312335
H         7.20657902946726   -3.35218553785785   -4.42499595031910
