35
 energy: -44.219675266890 gnorm: 0.099918193615 xtb: 6.4.1 (025e99ea0bd20707e8cccc6e19fe66a0758c6dd1)
C         1.25304564025071    1.59962980370207    0.67088680100393
O         2.54026436005916    1.29022286763513    0.15318932494248
C         2.84642946836387    0.60243378710339   -0.98868464750886
C         1.90697097878550   -0.06342680062482   -1.77717475903587
C         2.30762164273093   -0.75767728574576   -2.92303170691071
C         3.67177997352347   -0.77722362559598   -3.24486007585792
C         4.59207601810821   -0.06902051200307   -2.46067815165391
C         4.18171489360819    0.71264773748103   -1.36775869180013
C         4.24175270229423   -1.41542656902596   -4.49485024036866
C         5.08751710222514   -2.63286910663802   -4.03545669655827
C         4.22460600091211   -3.90316849983054   -3.95560232147962
C         5.09823733481828   -5.14748823687856   -4.08318794269369
C         5.66245917328517   -5.30656773042207   -5.48165324460216
C         6.20916693490482   -3.98552941722120   -5.98345803361033
C         6.33597570019126   -2.96350798545066   -4.86826635166569
H         1.46457848065986    2.01096791911176    1.66330363195123
H         0.68367734414282    0.67283683558051    0.79281438392080
H         0.68544322321505    2.31287529988630    0.06416271182478
H         0.85422573766516    0.07663818877156   -1.54787456655890
H         1.52317988673655   -1.19951317573302   -3.53491835633735
H         5.63410834522400    0.00464067711073   -2.75529511001989
H         4.98513732798674    1.12660422266416   -0.76572464254079
H         4.77522577079012   -0.73671027646609   -5.17599339308784
H         3.57188884935717   -1.87217913705465   -5.23601295656344
H         5.44723474236413   -2.44774911658756   -3.00928466847035
H         3.58197741551799   -3.96002849916406   -4.84098263194252
H         3.66530253725743   -3.86432505604489   -3.00918455442654
H         4.51208799500662   -6.04563603566671   -3.85009384306660
H         5.89487919199080   -5.19687172650013   -3.32941233626338
H         4.88355668590808   -5.76022268456810   -6.10791954850469
H         6.43879311136951   -6.07623184878364   -5.40470829226251
H         5.62805222839276   -3.44243727117815   -6.73660304923780
H         7.18430726037432   -4.07583321350969   -6.47938950771782
H         6.63560635246079   -1.98172689921852   -5.24855925467348
H         7.18135341521949   -3.28759110170927   -4.24314826546377
