35
 energy: -44.217697560696 gnorm: 0.094679678111 xtb: 6.4.1 (025e99ea0bd20707e8cccc6e19fe66a0758c6dd1)
C         1.54028457716505    0.83250575120275    0.68721195736653
O         2.83649362378085    0.90451932161009    0.10813377652278
C         2.91645821986324    0.53131881133942   -1.20525654129437
C         3.79468608818577    1.11409264768382   -2.12000225861382
C         3.99230698532466    0.54976500226126   -3.38411188653983
C         3.38305946412982   -0.67341183586357   -3.69642489421077
C         2.45027809275860   -1.27705044670818   -2.84262333056643
C         2.26191728859532   -0.62897011632420   -1.61039504215320
C         3.77073223181833   -1.44100077095095   -4.94348719815381
C         4.81034046384972   -2.58771817835322   -4.83043818633316
C         5.46396845393010   -2.61552890915542   -3.43880251292134
C         6.33695889027009   -3.85251335986365   -3.25012667801537
C         6.66347853623571   -4.51546244127806   -4.57422682693308
C         5.46244970447516   -4.94166641264896   -5.39381182464915
C         4.30252204995365   -4.01876892733352   -5.06656753315251
H         0.77650324532907    0.78332254968925   -0.09576661686835
H         1.35854655235284    1.75322033856358    1.25045945434274
H         1.49082837634340   -0.02869051826692    1.36167532952744
H         4.47132212435804    1.95199894965495   -1.97666336045169
H         4.73114292276533    0.95604113340381   -4.07261335367382
H         2.15329931279138   -2.31190443979167   -2.98023624755922
H         1.51563820214756   -1.08878855517920   -0.96935907033522
H         4.17178388578800   -0.68560816714822   -5.63467813777705
H         2.84361348631838   -1.83189582913929   -5.38429844691919
H         5.58214911490170   -2.36538008210233   -5.58646225886450
H         4.61108171112764   -2.65637813829770   -2.75249471236192
H         5.97247929239234   -1.64273658839728   -3.36719528850048
H         5.81801124196818   -4.58672351579273   -2.62068076237856
H         7.28803775870106   -3.59800491735786   -2.76440136367132
H         7.31288890072183   -5.36801744232136   -4.33733542821662
H         7.31665809493173   -3.87122473353527   -5.17365322284281
H         5.04948165415880   -5.91617357674864   -5.11156375527814
H         5.63907342929912   -4.99493963130922   -6.47592433298639
H         3.91373213527606   -4.37592922051261   -4.10762319298656
H         3.44047026089719   -4.07184365801580   -5.74812145798634
