35
 energy: -44.217249892010 gnorm: 0.106057632909 xtb: 6.4.1 (025e99ea0bd20707e8cccc6e19fe66a0758c6dd1)
C         0.84676679824212    0.85938624695324    0.22310738915905
O         2.26268246207608    0.77192213442611    0.13250800965789
C         2.70962201729619    0.39791384292313   -1.10483992340916
C         2.04290579973525    0.26971923807084   -2.32415320175904
C         2.69807060405869   -0.35279165201543   -3.39126711924719
C         4.05454073725761   -0.70488753283965   -3.36125389041986
C         4.77768653693136   -0.41637673033573   -2.19623911088198
C         4.06810214490331    0.09249973409234   -1.09559875620070
C         4.83430958217687   -1.13337652209652   -4.58722496439268
C         5.75412419860741   -2.33681448470185   -4.24928365144413
C         5.04726346226301   -3.24377903390312   -3.22829587101887
C         5.41293540010895   -4.70213529645440   -3.48776157967141
C         4.81939714604735   -5.15737005722704   -4.80678827559356
C         5.09681271519058   -4.10904415269059   -5.86503827002361
C         6.13352579099676   -3.04288764324925   -5.56041217139567
H         0.67637483779246    0.86813460068795    1.30464629536787
H         0.44559209441887   -0.03658393358964   -0.26092576790424
H         0.41956036001128    1.68685190715681   -0.35291432001191
H         1.03942797572879    0.66328096743529   -2.46057440642530
H         2.09484389146631   -0.45708033669642   -4.29138628257517
H         5.82523438673043   -0.67655068634116   -2.08217987177652
H         4.54997778775526    0.17090814106143   -0.12557784080926
H         5.52282034433327   -0.27981261588287   -4.66838485224394
H         4.13843755399684   -1.41539437747404   -5.38902963077913
H         6.68709170915567   -1.95939738898377   -3.79781583898099
H         3.96126396934012   -3.16703336284810   -3.35002530973625
H         5.42459275089294   -3.09294565154664   -2.20608861869233
H         4.98207045792736   -5.28588682930675   -2.66425509722645
H         6.49387847552936   -4.87389731425334   -3.57328654881776
H         3.73157157712847   -5.17099280291480   -4.66135327491576
H         5.15507511687502   -6.13270818838761   -5.17696876485341
H         4.23333950885489   -3.54568899286914   -6.23505959748001
H         5.56500550487069   -4.65913309992100   -6.69159687121257
H         6.25442590521469   -2.34346674427312   -6.39377217168243
H         7.10837360921797   -3.54513668479103   -5.47162251703967
