35
 energy: -44.222673338529 gnorm: 0.100323288564 xtb: 6.4.1 (025e99ea0bd20707e8cccc6e19fe66a0758c6dd1)
C         0.83910225095583    0.92990713446227    0.34471289173388
O         2.21067671996206    1.19444820661636    0.08112821637838
C         2.76172325089831    0.67031554738665   -1.05566541518903
C         2.13774365801155   -0.16628727308896   -1.98217199787750
C         2.87750103095486   -0.74279911161852   -3.01942124084608
C         4.23599134226801   -0.45483802377359   -3.21038204677314
C         4.86979324965446    0.32970608772089   -2.23764187707400
C         4.14971803250570    0.76544307656996   -1.11269769215930
C         4.85368249885971   -1.17406483928816   -4.39182936190831
C         5.37407606764904   -2.58994107770929   -4.02712236544758
C         4.27526336334833   -3.63007574413521   -3.75256207313485
C         4.93784841415742   -5.00212072279895   -3.83202926435303
C         5.25550050034348   -5.39514631406527   -5.26170958071711
C         5.57693366335494   -4.12728519307829   -6.02659424528971
C         6.24848825086167   -3.03939749065239   -5.20819608668174
H         0.67215326468643   -0.15151623491977    0.30613971865434
H         0.26492645098312    1.43269568140250   -0.43983642555146
H         0.63068414295981    1.34990865242643    1.33424125834200
H         1.07473783657078   -0.39009437370795   -2.00213043909603
H         2.26121057934972   -1.29847978248807   -3.72396235749185
H         5.93040938121641    0.55973667446271   -2.25299910578468
H         4.79047760148815    1.38410453834686   -0.49142660524526
H         5.84881550189519   -0.79296034190352   -4.66326074677246
H         4.16207586926814   -1.13469392230863   -5.24435083988852
H         5.93043020454800   -2.53700761609330   -3.07614216200089
H         3.51454821008256   -3.50012177129962   -4.53007559284315
H         3.79219984409724   -3.43410086869829   -2.78391391668396
H         4.28579184874063   -5.81499573198469   -3.48760244831335
H         5.83962240883568   -4.94480644615282   -3.20851232010704
H         4.38861331763716   -5.92701783857455   -5.67440884230691
H         6.11571620305314   -6.07168838347783   -5.20411150832219
H         4.71046826335820   -3.59026857834760   -6.42749530928669
H         6.28774647067769   -4.28053642189244   -6.84894494455820
H         6.52414950809824   -2.22816807490910   -5.88952789129246
H         7.20002706337847   -3.43251910106399   -4.82025890268392
