35
 energy: -44.220617483587 gnorm: 0.081153428779 xtb: 6.4.1 (025e99ea0bd20707e8cccc6e19fe66a0758c6dd1)
C         0.92094730499923    0.36493763658871    0.52649272430940
O         2.23633965302390    0.49373607456262    0.00320571348374
C         2.65577286869362   -0.04372120989356   -1.18249344700374
C         3.99272514868901    0.22061802241323   -1.48308055953759
C         4.49393582623523   -0.08958532828987   -2.75117147957269
C         3.69293222258309   -0.50774963594492   -3.82281291035597
C         2.35646348757985   -0.77155282930105   -3.49464077712373
C         1.87251722350533   -0.60822497564808   -2.18582663240150
C         4.20809420611908   -1.01976231627570   -5.15213547205417
C         4.82940680542976   -2.42682470334793   -4.94556279475115
C         6.36274857959331   -2.45540949275359   -5.05825150357830
C         7.05566341050131   -3.50461941937036   -4.19403569154162
C         6.26599349999653   -4.79174126663442   -4.33222596391089
C         4.87308313654579   -4.61986886861211   -3.76117408634825
C         4.36367410460668   -3.19137881863131   -3.69652599933332
H         0.24565721843522    1.07837814488245    0.04294097832979
H         0.97541721521660    0.73299176932535    1.55584251125002
H         0.43417872407762   -0.61575343456201    0.50896753431195
H         4.73445009985233    0.55474644354496   -0.76289195978765
H         5.57426402831551   -0.03833936909014   -2.87461348857679
H         1.64773632899988   -1.26271302765754   -4.15382509418519
H         0.83754900537378   -0.92808366450444   -2.10951295903988
H         4.91098611207503   -0.37563512455342   -5.70008478066439
H         3.33580853925597   -1.13043277953109   -5.81056727341453
H         4.40051805562062   -3.05866520551578   -5.74150704215176
H         6.74685857333161   -1.47100183543899   -4.76928104160483
H         6.61801356525270   -2.47517861393513   -6.12805743648840
H         7.11016089890449   -3.14659344124592   -3.15797546255622
H         8.08772500478609   -3.75023733387481   -4.47648099166203
H         6.72107533719321   -5.69956719363710   -3.91574788105320
H         6.19150548921578   -4.93878694911454   -5.41565887278140
H         4.84526844756973   -4.97688954620086   -2.72597682261201
H         4.20515638125574   -5.21487839953609   -4.39744365613868
H         4.58540460685697   -2.64046294925101   -2.77694859178939
H         3.26385187036406   -3.18827304335967   -3.72563573782480
