35
 energy: -44.221386884819 gnorm: 0.091837702084 xtb: 6.4.1 (025e99ea0bd20707e8cccc6e19fe66a0758c6dd1)
C         0.84292097014591    1.01129582404900    0.37157674767815
O         2.23499730238488    0.73802421677583    0.28145746153009
C         2.73899723733049    0.26960647940541   -0.90058989111754
C         2.10523647359007   -0.00700563998336   -2.11282017150619
C         2.84173206161346   -0.34218213383186   -3.25331295490119
C         4.23807174174039   -0.45093558662589   -3.31068622604982
C         4.86722441433021   -0.12349827869977   -2.10222048029178
C         4.12859616099389    0.19661419692060   -0.95077324308968
C         4.92561633246465   -1.05154651345781   -4.51948573223114
C         5.58587006601836   -2.45168853582431   -4.40906162652637
C         4.63499480897038   -3.33358554626261   -3.58277672365533
C         5.04188546309387   -4.80084759921344   -3.48570218350159
C         5.49416057589938   -5.25934033544479   -4.85850566592615
C         5.19460999766053   -4.32767670461284   -6.01527356775010
C         5.84931214649396   -2.97054704264429   -5.83135800136888
H         0.90826852873033    1.55389425881767    1.32034067747994
H         0.08001372375829    0.22665698870333    0.38907610695590
H         0.56028297297756    1.71309403287632   -0.42000445693668
H         1.03077338574227    0.05502696900776   -2.26165008803078
H         2.34774884743962   -0.46678944609357   -4.21530396536163
H         5.94771288193333   -0.12097134869176   -1.99928957527192
H         4.69235716187716    0.46934188038960   -0.06359472355966
H         5.75280744966524   -0.36170631150260   -4.74102731718686
H         4.18319095559994   -1.11496303443293   -5.32660751400000
H         6.50618508844271   -2.42595229571154   -3.80156420124605
H         3.69390775027276   -3.22944582431376   -4.13378753934614
H         4.48506196731052   -2.84336587387110   -2.60951387039386
H         4.14427211330876   -5.32857719202409   -3.13876540741713
H         5.88258168860374   -4.97771409635942   -2.80217987897249
H         4.98311835323098   -6.16800798914974   -5.20181358633967
H         6.55539516961925   -5.52530574540451   -4.79493443198597
H         4.11104202320146   -4.25064469763783   -6.15604753442998
H         5.59840466848337   -4.89198680881604   -6.86586479006767
H         5.43542515603116   -2.28439216268381   -6.57713568927524
H         6.94112945004844   -2.96079317269858   -5.96665695319138
