35
 energy: -44.222061364144 gnorm: 0.094509301860 xtb: 6.4.1 (025e99ea0bd20707e8cccc6e19fe66a0758c6dd1)
C         0.90969776119504    0.92236892167725    0.29955730200180
O         2.31928734840516    0.75149925897525    0.23220646920835
C         2.86800796060644    0.38839649864436   -0.96684697287113
C         2.27056468306300    0.41114188890863   -2.22788362524967
C         2.92025204850497   -0.01580525421627   -3.39025848994434
C         4.24028697209163   -0.48304945798513   -3.32642897912759
C         4.87920761780976   -0.49493787710206   -2.07940177496215
C         4.15986895984750   -0.12977852168018   -0.92914745404019
C         4.92067081916022   -0.97438231032989   -4.58750677187503
C         5.19368549780801   -2.49745562898824   -4.46818853652294
C         3.90884055456462   -3.34074112708062   -4.41626666595198
C         4.26853403561526   -4.70465292568473   -3.83471132588017
C         5.70713676479543   -5.07225242532386   -4.14236464803412
C         6.03505685781978   -4.55812435479902   -5.52944085062746
C         6.22205198157108   -3.05304984618495   -5.46584594710203
H         0.38610670888976    0.03442357029458   -0.06955219340721
H         0.54439339461270    1.78369995432479   -0.26846855365012
H         0.62757070649346    0.93304829720687    1.35752518686685
H         1.29292755990102    0.85380082006665   -2.39743616988757
H         2.42640696068787    0.10320274736261   -4.35302909519148
H         5.89539975354854   -0.85115298259851   -1.94331047300139
H         4.58711465919159    0.01948122219228    0.05800766926975
H         5.77668508588411   -0.30784515861979   -4.76687547069140
H         4.34145467941712   -0.77422129285047   -5.49915741920645
H         5.64006165206743   -2.56000051119287   -3.46144542360455
H         3.50897714842498   -3.28335517955519   -5.43455884552475
H         3.04339164675082   -2.94117471542138   -3.86728521153084
H         3.47931113668608   -5.35130150746306   -4.23911978833147
H         4.30435187020124   -4.68570744285203   -2.73761844220527
H         5.76364770320041   -6.16835052409722   -4.13359772557249
H         6.37057288723666   -4.57457268627320   -3.42600918182297
H         5.18421134260809   -4.88552265228975   -6.13668302705362
H         6.95434866685381   -4.94131691160737   -5.99103319603015
H         6.09649680394810   -2.63666477904747   -6.47041286640029
H         7.23515985563794   -2.87012000480989   -5.07775436049419
