35
 energy: -44.229850902588 gnorm: 0.082760342170 xtb: 6.4.1 (025e99ea0bd20707e8cccc6e19fe66a0758c6dd1)
C         1.26457950354460    1.11892019401958    0.84345696294517
O         2.21019942697283    1.61434011435658   -0.09517898614483
C         2.72033432913407    0.74094348823315   -1.01583516369516
C         2.02436531286046   -0.20979868653574   -1.76375607837081
C         2.64017283973813   -0.95591467289180   -2.77350103373976
C         3.96227222014719   -0.63913938225316   -3.11495406350283
C         4.66832880103679    0.31933436086626   -2.37586682769089
C         4.04031514440972    1.03798850016249   -1.34484329459249
C         4.60277625446237   -1.33976116831103   -4.29543321204723
C         5.20086564155828   -2.73084858001456   -3.95529930989002
C         4.11311076576658   -3.80870388063515   -4.09554949790165
C         4.77766554629825   -5.15989746401934   -4.34148495523409
C         5.60319137061252   -5.30423011725790   -5.60522265231005
C         6.04769546963477   -3.93391770717930   -6.07479655958942
C         6.38402676900924   -3.06267609395350   -4.87810108102134
H         1.10119735382131    1.92246344797916    1.56903319635188
H         1.62219517472955    0.27817362998557    1.44615759199314
H         0.31012767370709    0.95478817539650    0.33248910302702
H         0.96903161214200   -0.40947950352175   -1.59984243051639
H         2.10995251091640   -1.73879588143417   -3.31288634849756
H         5.72269480542686    0.43978969110460   -2.60359327862981
H         4.49348484924970    1.79490859331547   -0.71159628330849
H         5.40218459161433   -0.74999360291531   -4.76694763253439
H         3.89671652831027   -1.53757455066876   -5.11336487055306
H         5.52615312011755   -2.73988204514916   -2.90135354576847
H         3.44029071500143   -3.72860117643576   -4.95636282617244
H         3.50695767260710   -3.92994240665905   -3.18565092508031
H         4.03164064301432   -5.96413775085413   -4.30658823951595
H         5.42077919325310   -5.41784551307632   -3.48994383237907
H         5.02805207122939   -5.83149300727334   -6.37717473446565
H         6.55710585623985   -5.81240201741771   -5.42409772677078
H         5.28250654152262   -3.40340408171783   -6.65178182241239
H         6.91726352976316   -4.05928252188651   -6.73292763271751
H         6.71982923105106   -2.09153770795529   -5.25548982429791
H         7.20046860488310   -3.55362688732502   -4.32777752550689
