35
 energy: -44.219384102600 gnorm: 0.097986426392 xtb: 6.4.1 (025e99ea0bd20707e8cccc6e19fe66a0758c6dd1)
C         0.88479487823701    1.14625419104565    0.37046785787070
O         2.25787134853442    1.28136486002600    0.02829612105797
C         2.72827319983725    0.62050739618983   -1.07291076289995
C         2.06369609132939   -0.36978273750149   -1.79770865174938
C         2.77057547441430   -0.87300222238248   -2.89433281096118
C         4.10097742061768   -0.57149726794786   -3.21683701507777
C         4.77568852462749    0.25818536810066   -2.31139269318461
C         4.04435738618499    0.97905365328469   -1.35255060670172
C         4.78450752743979   -1.18513230981295   -4.42136429247163
C         5.34743788894071   -2.56672336392298   -3.99376431025796
C         4.34939017321640   -3.70449866208820   -3.72169637852465
C         4.94232161268677   -5.09706889597532   -3.91410701922481
C         5.36435321055053   -5.27515070133819   -5.35962905985453
C         5.64017503128789   -3.95842380996730   -6.05676051629036
C         6.35201619296804   -3.09901236442496   -5.02770517740508
H         0.61663928836920    0.08685423371199    0.43829607392950
H         0.25866129525817    1.71704272641731   -0.32245997867250
H         0.81076266052489    1.55254268453768    1.38459539527083
H         1.13878416527511   -0.89534846054708   -1.57682875627278
H         2.30160019072124   -1.61955153339181   -3.53284626204176
H         5.81938396917680    0.45977575556163   -2.53075002213352
H         4.55726912340170    1.64104949607435   -0.66119277873474
H         5.66872664762302   -0.56071807894720   -4.61493275036391
H         4.26108853134577   -1.05938902291899   -5.37890480889421
H         5.97857251300585   -2.31131331509037   -3.12593367206030
H         3.56647564533630   -3.60458859426154   -4.48141058252438
H         3.93370460631210   -3.55542680276798   -2.71421493649033
H         4.16184572018822   -5.81237189271651   -3.62467243292627
H         5.85752270638655   -5.23799234940682   -3.32435946255432
H         4.59658303859263   -5.81072799358485   -5.93267994213642
H         6.22750730248034   -5.94201213013144   -5.46573567065766
H         4.77479913770203   -3.44261599275111   -6.48680429823277
H         6.24898681625419   -4.30219931512725   -6.90302765536702
H         7.01023841444501   -2.39965405976697   -5.55300203504438
H         6.98194062949651   -3.84422853716240   -4.51945914353182
