35
 energy: -44.223558708803 gnorm: 0.110026839829 xtb: 6.4.1 (025e99ea0bd20707e8cccc6e19fe66a0758c6dd1)
C         0.93534636892138    1.56207767785635    0.20541757630907
O         2.34188001319892    1.35649883847267    0.19670994259433
C         2.83293762094371    0.57743371645472   -0.81452050374308
C         2.12667269894291   -0.13686597135708   -1.78335229446100
C         2.71121985545827   -0.80172449179556   -2.86583121097769
C         4.10748629279595   -0.72435668615590   -2.96246339247728
C         4.89229183395860   -0.22684992581104   -1.91365214005253
C         4.21739500091669    0.44393678667088   -0.88000138015807
C         4.89666821892135   -1.14249812358110   -4.18598166310454
C         5.18483350710066   -2.66709038904053   -4.15273453727657
C         4.00994081724662   -3.52405941951882   -4.65261861012357
C         4.28889957712420   -5.00455189321173   -4.41144346190734
C         5.61383520924796   -5.40957494820659   -5.02777102530864
C         6.14707532731222   -4.30537496038039   -5.91784799587838
C         6.32750742492110   -3.03049437347731   -5.11386758043692
H         0.40481141363506    0.70340646409737    0.62974382137596
H         0.60622023645809    1.91264286862462   -0.77782798651769
H         0.83725229454531    2.35628082508955    0.95282956701886
H         1.04807760472910   -0.26761534099661   -1.78079324989609
H         2.14538219580788   -1.27089932518797   -3.66874827580189
H         5.97514024117706   -0.22858739352262   -1.98776553651017
H         4.77290138939035    0.98864888002064   -0.12237748243397
H         5.85839501207405   -0.62127521864568   -4.29829187052711
H         4.34729299160894   -0.79160906724425   -5.07013459170251
H         5.43543018201194   -2.90011680622432   -3.10411867838386
H         3.72576691482109   -3.13959032898222   -5.63828161732253
H         3.14725818361936   -3.22448589947853   -4.03937302488841
H         3.39808257079104   -5.50319852966537   -4.81439503446160
H         4.19704375560675   -5.10292381525261   -3.32188386444426
H         5.41158343016510   -6.24946669843488   -5.70480680908235
H         6.34132700582607   -5.68334147007757   -4.25523925116865
H         5.48495735053541   -4.17987207340050   -6.78139857686997
H         7.13954888219101   -4.53678272734456   -6.32582856719280
H         6.49552575110852   -2.25853701194059   -5.87159246148333
H         7.23205213911417   -3.16110954849022   -4.50132818915006
