35
 energy: -44.221615654766 gnorm: 0.109963397585 xtb: 6.4.1 (025e99ea0bd20707e8cccc6e19fe66a0758c6dd1)
C         0.82793862728158    1.08843219044454    0.32341860374460
O         2.23356922253155    1.12009819601323    0.11395436225841
C         2.79928660668774    0.50381354842486   -0.96809191607168
C         2.13845251676327   -0.24280158520803   -1.94458226640783
C         2.71389969846449   -0.76875844258492   -3.10549690087046
C         4.09243646447512   -0.56964473756631   -3.26321083498036
C         4.81455209345803    0.18540867472340   -2.32946507068382
C         4.15515275144947    0.71267238640951   -1.20649581494944
C         4.76315418151169   -1.23868639058004   -4.44522960723527
C         5.52849472700597   -2.51366829636918   -4.00115620544106
C         4.46088973973489   -3.56750571106077   -3.66307464585575
C         4.94803092228275   -5.00876272517271   -3.77845703966041
C         5.23720897039518   -5.30683272136622   -5.23684248441320
C         5.56597081988497   -4.01445180576695   -5.95622198632732
C         6.39134307061973   -3.01076719704729   -5.17159556496070
H         0.46218446605193    0.07964383645024    0.54114849169587
H         0.31931683641533    1.55153832601893   -0.52794993087370
H         0.60883521877305    1.68462461150963    1.21535697688597
H         1.06369605125748   -0.39234325797095   -1.99940168042298
H         2.30074054146314   -1.40705635270835   -3.88450165394800
H         5.87681996826710    0.22767937748549   -2.54822671313952
H         4.72647135948135    1.23815342392826   -0.44705041362693
H         5.43628833959706   -0.50216715367160   -4.90743643747068
H         4.02143885615789   -1.38697016083538   -5.24180539126989
H         6.15737512208035   -2.37568167299440   -3.10551991365279
H         3.62592207856866   -3.40059780846313   -4.35233048464497
H         3.98637109487655   -3.43993245457715   -2.67890347753743
H         4.18754889527667   -5.72345170460153   -3.43866279845507
H         5.81444552510951   -5.06160964670212   -3.10630558134536
H         4.57738067298294   -5.92132358657613   -5.86272504651251
H         6.16268148274212   -5.89299426411961   -5.20662592627414
H         4.64533242272224   -3.55365810194004   -6.33034082005712
H         6.15449488054599   -4.29278012279477   -6.84006260404176
H         6.53301771830088   -2.13479377183656   -5.81260584350992
H         7.34242238017193   -3.42617845614960   -4.80642765149036
