35
 energy: -44.212502048096 gnorm: 0.115319318245 xtb: 6.4.1 (025e99ea0bd20707e8cccc6e19fe66a0758c6dd1)
C         0.90217872008016    1.19374554116886    0.30226244294869
O         2.21863552779889    1.43733140034538   -0.17552704013158
C         2.68881993345320    0.51407972500990   -1.06838764597600
C         2.02847009420148   -0.26618906108896   -2.01853920028241
C         2.72340022195830   -0.97139870974390   -3.00608380096805
C         4.10415508227933   -0.74536403115384   -3.09157009713927
C         4.81128535234406   -0.07324553032731   -2.08575634784648
C         4.08066356415018    0.49936512663664   -1.03115532429578
C         4.79745432715774   -1.11688614240101   -4.38615684764889
C         5.49693063435173   -2.45048857731675   -4.01097202801282
C         4.58581705458738   -3.60117094162466   -3.55221829292762
C         5.12493975408531   -4.99756125947452   -3.84765391181220
C         5.27405210100964   -5.22041924729833   -5.34012086181874
C         5.42104685950162   -3.92840192310050   -6.11788909692982
C         6.22591654384344   -2.96830341055690   -5.26076809953199
H         0.80237128683521    0.12654426916664    0.52577145836316
H         0.12186207912707    1.47992660883451   -0.40991600326733
H         0.84124283862619    1.79424258638514    1.21587936979648
H         0.95662093524343   -0.42597394973889   -1.94058082527664
H         2.26701993009716   -1.69271424035521   -3.68165322759029
H         5.88011196474202   -0.05169988302741   -2.27337821885753
H         4.54106448326972    1.16316356886906   -0.30541761566503
H         5.52273307133304   -0.35407160425264   -4.70441783874453
H         4.09324176670134   -1.25554053256886   -5.21773505294833
H         6.14228084677620   -2.36887554720390   -3.12015350181888
H         3.58377040256379   -3.53911801628336   -3.99057293868521
H         4.53500213906838   -3.45806640024231   -2.46273460555555
H         4.54654944881545   -5.81771332434298   -3.40336951846164
H         6.17205704294921   -5.05325330327219   -3.52254097183055
H         4.32489697744217   -5.58609702254718   -5.75253534216886
H         6.07328352117455   -5.91321878094964   -5.62692342203557
H         4.48777744037771   -3.50318604993783   -6.50268832996245
H         6.03809119578308   -4.13561212185133   -7.00181312090562
H         6.58060484777573   -2.12024529637956   -5.85514926195702
H         7.06743787778877   -3.54419688703310   -4.84766457473342
