35
 energy: -44.217125217538 gnorm: 0.094636935143 xtb: 6.4.1 (025e99ea0bd20707e8cccc6e19fe66a0758c6dd1)
C         1.55512080890306    1.45887592961046    0.67502551743044
O         1.24410477409231    0.96506324968680   -0.62115866770753
C         2.24136832067500    0.44151541126976   -1.39706469170636
C         1.72550155256437    0.03567477866977   -2.62866695126501
C         2.56897297175805   -0.64726045517038   -3.51051064000055
C         3.89078309355791   -0.90992515421447   -3.12488286398514
C         4.46655305318561   -0.21243619605625   -2.05463249581930
C         3.61125537015096    0.43543480093483   -1.14765758523778
C         4.72498363861269   -1.64243195993578   -4.15550915401438
C         5.86910395632342   -2.63627537755378   -3.82115886776334
C         5.32065682344153   -3.81834205559614   -3.00471723665034
C         5.44306985637762   -5.04670972768247   -3.90136059652018
C         4.89739186601455   -4.89276931573595   -5.30773737666072
C         5.51044287697413   -3.76939302656995   -6.11893021350914
C         6.43345149176112   -2.97962975617285   -5.20866111548726
H         1.86284549704608    0.64380820766018    1.33820458848305
H         0.61850513840922    1.91133278298157    1.01565094987043
H         2.30158074214712    2.25935672863226    0.70717866987745
H         0.72374261476599    0.37360625678372   -2.87916781146070
H         2.09885335860273   -0.84286137362386   -4.47264417174078
H         5.54207817492908   -0.22508004724725   -1.90922847590305
H         4.13522934351705    0.94176972327146   -0.34244407635116
H         5.12534529376068   -0.85681041929231   -4.81255912592743
H         3.96559875926404   -2.23369020696306   -4.68504760130829
H         6.63516751348587   -2.11078778035657   -3.22642814975894
H         4.27951487528057   -3.64780624500557   -2.70968532385760
H         5.90891700540004   -4.00292610664356   -2.09372083148332
H         4.92956232452775   -5.87176689107058   -3.39129778927387
H         6.50792706794483   -5.28787301477280   -4.01613877468199
H         3.84951843622029   -4.61692157150902   -5.13289263602924
H         5.06717789478414   -5.90150204642661   -5.70096599535441
H         4.75150548740464   -3.11524122038643   -6.56161548302078
H         6.10251732663701   -4.14287079072714   -6.96448545263634
H         6.69256274451138   -1.99131743088202   -5.60159295126909
H         7.39728959741438   -3.49468310239058   -5.08137354909030
