35
 energy: -44.210350213207 gnorm: 0.093043166611 xtb: 6.4.1 (025e99ea0bd20707e8cccc6e19fe66a0758c6dd1)
C         1.56978641952846    1.09462323003047    0.70469672965503
O         1.40399820052390    0.13218805248168   -0.32821574174046
C         2.32524518986116    0.03750711960055   -1.33469802504022
C         1.84629339119970   -0.50057698350648   -2.52999712907329
C         2.66512637850705   -0.79963374919631   -3.62341857111734
C         4.06000845060591   -0.66431260787512   -3.59382572707449
C         4.47309870694985    0.01952630664239   -2.44267041674072
C         3.68075151251497    0.35598542449750   -1.33233009072041
C         5.01994345716349   -1.17445299196090   -4.64878018304270
C         5.91598078660983   -2.27483680457341   -4.02045005325784
C         5.21792049260357   -3.22454776716358   -3.03281968310684
C         4.51849608004900   -4.46320182460651   -3.58452886275643
C         4.45115582730177   -4.40781255219998   -5.09838324368153
C         5.73329645993829   -4.11048587819607   -5.84908417981144
C         6.62264037696172   -3.19124207552788   -5.03157638903041
H         2.07862058886889    0.59082876153632    1.53301748771775
H         0.66726681094353    1.57240759509921    1.09861582785345
H         2.21116475714778    1.87880185152290    0.28912063886288
H         0.78791557123149   -0.74455311796365   -2.50204397448273
H         2.25882328733674   -1.38569438763602   -4.44586847354477
H         5.55398019018209    0.08779963895245   -2.37132284510646
H         4.18738745148707    0.64788414031962   -0.41723023234850
H         5.71834018419469   -0.38611048938716   -4.96495012958021
H         4.58289258359116   -1.60064337533682   -5.56202218630371
H         6.76982364934741   -1.77055663626166   -3.53738784022000
H         4.57297622302655   -2.66358164885834   -2.34764324328396
H         6.07480304304966   -3.49717582398446   -2.39920938835877
H         3.50069516538045   -4.59726409414516   -3.19635109315365
H         5.09346928731358   -5.36926118566880   -3.35275982455186
H         3.67699592312828   -3.64015903986536   -5.22521349989715
H         4.14969912146637   -5.40026966400240   -5.45214940959651
H         5.54149667476066   -3.76903645948117   -6.87206801729847
H         6.35347146765954   -5.01522468541559   -5.89188731778399
H         7.36842198410160   -2.61429243627051   -5.58766471707119
H         7.18480828120881   -3.84778192383275   -4.35084983070381
