35
 energy: -44.224099603615 gnorm: 0.089678911556 xtb: 6.4.1 (025e99ea0bd20707e8cccc6e19fe66a0758c6dd1)
C         1.05349196533180    1.09781303787552    0.51302930462888
O         2.27804776232667    0.39394098912361    0.35270895634513
C         2.87059739036316    0.26694932288805   -0.87343341995565
C         2.21031358412956    0.35174420605024   -2.10001581611222
C         2.86012368103896    0.07998050213468   -3.30806555638257
C         4.13025744970789   -0.51042330021744   -3.36344687927395
C         4.83837814377068   -0.44743195544063   -2.15595570578499
C         4.22746924636794   -0.03330599372219   -0.96047904059642
C         4.75465776796355   -1.02808777938055   -4.64281979614817
C         5.26464090093526   -2.48294943831519   -4.46443555285839
C         4.02529993994670   -3.36095016570851   -4.22401603027172
C         4.45199489956431   -4.74087748858518   -3.73251485705393
C         5.77111004665811   -5.10623355501317   -4.38505446799213
C         5.99701652737003   -4.50133416213203   -5.75578516246502
C         6.00983583218221   -2.98405585013991   -5.71147995607257
H         1.12818297271243    1.46320404572943    1.54246945485486
H         0.21108421773689    0.39981953681391    0.47917578902197
H         0.95935163040815    1.93696801703192   -0.18408064707605
H         1.18586979586299    0.70461196079909   -2.18044345179862
H         2.23920421827399    0.28995568964914   -4.17717000780831
H         5.88999642943411   -0.71127468449584   -2.10553257648561
H         4.74743913731739   -0.02814153829210   -0.00711802479109
H         5.53108587101451   -0.37804176741404   -5.07154453756720
H         3.85739041338837   -1.09845748782301   -5.27259918713894
H         5.93237529800770   -2.49646742374660   -3.58657265758566
H         3.45473879446682   -3.48359103681233   -5.15112015021936
H         3.34080152937240   -2.98529153246880   -3.44917521798250
H         3.65130153393602   -5.43694159961929   -4.01350998950970
H         4.57146597457230   -4.91990536828802   -2.65597859493053
H         5.94375926592175   -6.18478759753923   -4.49282650103907
H         6.50213822357103   -4.58929793297684   -3.75309471251108
H         5.28851049846501   -4.82761575387579   -6.52483023654171
H         6.92582316724731   -4.93547295617209   -6.14801365628966
H         5.42267129035160   -2.57824030646244   -6.54144794844101
H         6.95648138975672   -2.42452679294541   -5.74691147174565
