35
 energy: -44.224787237621 gnorm: 0.096608825312 xtb: 6.4.1 (025e99ea0bd20707e8cccc6e19fe66a0758c6dd1)
C         0.97114262817531    1.68530910121513    0.18633083208553
O         2.30097351084595    1.18317416934783    0.17707261730311
C         2.71105569446277    0.42756749586090   -0.88667464715026
C         1.91790201872138   -0.09800261310273   -1.90763133851924
C         2.59709922213218   -0.67801902191724   -2.98362621402561
C         3.99282716904202   -0.78927071110470   -3.05033520000344
C         4.74803658976441   -0.40204780143386   -1.93536663145392
C         4.08108050428649    0.18226155454574   -0.84558380414291
C         4.66725760817539   -1.18941683965274   -4.34635757247117
C         5.48668580470859   -2.50209509141136   -4.22829226102920
C         4.47987325121332   -3.61390198569388   -3.88937227948987
C         5.08426343387124   -5.01311871334108   -3.82047769511122
C         5.72899559020759   -5.29589309128363   -5.16350296206069
C         5.65548616154606   -4.17748021296841   -6.18310516228719
C         6.09885626636194   -2.85055579876744   -5.59407603817255
H         0.90667032242960    2.21125794248109    1.14448400190392
H         0.23185680215626    0.88908029442665    0.31849722402244
H         0.74902360676759    2.38062654309702   -0.62988149547399
H         0.85442711718843    0.11472408965342   -1.84253284723206
H         2.01978999246781   -0.90523519642152   -3.87808692975856
H         5.81904374970361   -0.57617176070001   -1.90927055609787
H         4.51558435815987    0.43100308985779    0.11806895396389
H         5.28158542430296   -0.32760509376485   -4.64483232168703
H         3.86169400685199   -1.44915656026016   -5.04654700245453
H         6.26531711733772   -2.49879903428797   -3.44699997592892
H         3.69069745920347   -3.54929779762633   -4.64642625488820
H         4.08614832525226   -3.23835891794602   -2.93334725052679
H         4.27055600099456   -5.73871557757563   -3.69413379533445
H         5.75025485553034   -5.07952330084696   -2.95024755300635
H         5.29006506212027   -6.24417532529414   -5.49936332381910
H         6.77856293677841   -5.50675674534022   -4.92910443596697
H         4.62975435581088   -4.07411029900465   -6.55332093588872
H         6.24589853222919   -4.55549286075100   -7.02780696063649
H         5.94853327367398   -2.13136805500216   -6.40553602308624
H         7.18704163597403   -2.84327476014227   -5.43200951441588
