35
 energy: -44.225223069170 gnorm: 0.093166449408 xtb: 6.4.1 (025e99ea0bd20707e8cccc6e19fe66a0758c6dd1)
C         0.95850049128815    1.00734989870107    0.48664085182805
O         2.34231631603937    1.12069057505417    0.18187367700048
C         2.79761133249304    0.67164495516501   -1.02714723052632
C         2.01416758861318   -0.00989033476969   -1.95956065954912
C         2.67224206904858   -0.63844870031724   -3.02132579870427
C         4.05113630419470   -0.54226229717451   -3.25431162458499
C         4.82341951074656    0.14779482802358   -2.31046970562299
C         4.16771277267445    0.78883863550888   -1.24605157186860
C         4.60566137146268   -1.23775627030306   -4.48045901329083
C         5.31324084177754   -2.52660229581964   -3.98373635025227
C         4.34810187489340   -3.71608856283463   -3.84852527210179
C         4.95966932428854   -5.11229120098027   -3.91519501300580
C         5.48568732872657   -5.36734282795874   -5.31434171614649
C         5.77448855839810   -4.05804699043202   -6.02015890937432
C         6.29490060747561   -2.99556167620546   -5.06907688412969
H         0.74872851583102   -0.00315032351436    0.85232018589951
H         0.22935363788286    1.31227446538395   -0.27056299964995
H         0.78412494660888    1.77333964245585    1.24943745097812
H         0.93905429250649   -0.06991202062920   -1.81465335751742
H         2.01881010819369   -1.19867356796223   -3.68777000460860
H         5.90568129651357    0.21791426964867   -2.26746760246095
H         4.81966993120697    1.31392878783145   -0.55429671522551
H         5.34566517374693   -0.65650210425604   -5.04944345004281
H         3.76421485477177   -1.48437273849148   -5.14213170591854
H         5.85558640659366   -2.24420513758926   -3.06569040517133
H         3.63462175442636   -3.60215191079091   -4.67197375861300
H         3.79420742392129   -3.67862090149291   -2.89887645325918
H         4.19107226623087   -5.84604942428744   -3.64054831558388
H         5.85599645533289   -5.19600756747347   -3.28682896731478
H         4.71752908063886   -5.88603067619807   -5.90221688052276
H         6.38242774088092   -5.99099663738595   -5.22540171382864
H         4.84574542763854   -3.58826684702053   -6.36164626039974
H         6.36003114815250   -4.29128042132815   -6.91890442401311
H         6.64153670392943   -2.12719096473082   -5.63834926777178
H         7.24502519559095   -3.37542140333998   -4.66480491419536
