35
 energy: -44.222586570801 gnorm: 0.100209247502 xtb: 6.4.1 (025e99ea0bd20707e8cccc6e19fe66a0758c6dd1)
C         1.04088738458789    0.38455234233749    0.43560351989769
O         2.43841637409364    0.42920198903549    0.17948927187880
C         2.92740844546980    0.34331393242087   -1.09494278916778
C         2.21394332613588    0.16625374152792   -2.28123384218790
C         3.00405590472031   -0.03026933788467   -3.41815672406205
C         4.36737845998406   -0.34605540385800   -3.33744550466198
C         5.05128767888397   -0.20642906644160   -2.12245150647768
C         4.31545933196747    0.26164829238268   -1.02093678466644
C         4.98718740523465   -0.84684636445649   -4.62573608682256
C         5.28638699506792   -2.36388801820205   -4.49310724325607
C         3.98844023395601   -3.09184684642894   -4.10572759715232
C         4.25006957719017   -4.51141278704499   -3.61153731645441
C         5.53297123189515   -5.06626407933831   -4.19946686752597
C         5.69483101557474   -4.54880083403770   -5.61434242724730
C         5.85383074629793   -3.04512540958259   -5.74828295533919
H         0.85318295722854    0.31639615241163    1.51215269957804
H         0.55977558889633   -0.49210487321985   -0.00936318243459
H         0.49163452196260    1.27248615271763    0.10560260035110
H         1.15026547481619    0.35201508815822   -2.16060434197183
H         2.56349498285834   -0.31968245244233   -4.37058479463943
H         6.11953020812956   -0.38138984858727   -2.04305939774140
H         4.84508490429889    0.31666876808855   -0.07448969988051
H         5.88430967699263   -0.24662927052499   -4.83577512099706
H         4.32698254311368   -0.58933729421923   -5.46506992396388
H         5.97421751952076   -2.35500464212296   -3.63083960433375
H         3.42950901394820   -3.19456530453611   -5.04228921443865
H         3.47999642516515   -2.49910364155850   -3.33101722937625
H         3.40481364670185   -5.20343506062617   -3.71746635208372
H         4.34317848366500   -4.41281153919278   -2.52210481789232
H         5.46479077467208   -6.16113330720827   -4.23571856416880
H         6.44189882659513   -4.85970658647997   -3.62311420307158
H         4.79321334227503   -4.84791740161381   -6.15976487480469
H         6.55729691901693   -5.04030048250946   -6.08293832880643
H         5.33066216244212   -2.71530527653775   -6.65150420894873
H         6.93740062403471   -2.85898740624796   -5.78945251991418
