35
 energy: -44.222041583356 gnorm: 0.104473342071 xtb: 6.4.1 (025e99ea0bd20707e8cccc6e19fe66a0758c6dd1)
C         1.01485192212023    0.77568321237383    0.44199911012567
O         2.34562746807367    1.14680332666050    0.10736246143081
C         2.79225705907055    0.68722203476453   -1.10093142545357
C         2.03074708501439   -0.08227458159368   -1.98163952417538
C         2.60109192997675   -0.76827831863626   -3.05848606599309
C         3.97157697275337   -0.59870271157224   -3.29910691197635
C         4.67264278382529    0.36125012293116   -2.55719380658452
C         4.12019534035890    0.96442434408000   -1.41489037177768
C         4.78620245706303   -1.28974863004736   -4.37311259092156
C         5.44055078137711   -2.58671677052157   -3.82700994419261
C         4.34897727495269   -3.66760359165836   -3.75770046609284
C         4.90683758227822   -5.07790415211213   -3.92409041406229
C         5.25064886057930   -5.24322789674770   -5.39168015092011
C         5.78570399146492   -3.91827649113150   -5.89572323583346
C         6.48495575842917   -3.08094870979165   -4.84017128635041
H         0.71461322267054   -0.27357556898225    0.35397021445601
H         0.26100487243362    1.37978449365853   -0.07255707618269
H         0.99475164894038    1.13259395090122    1.47699499215665
H         0.97740224696482   -0.28178729241123   -1.80520637263104
H         2.06160132037324   -1.39703623531161   -3.76459261960169
H         5.65734776866666    0.53720069777160   -2.97844668757843
H         4.84238444845231    1.52588888357186   -0.82966132213393
H         5.53648115595218   -0.60672385893079   -4.79709886490681
H         4.11798252749485   -1.57230541668638   -5.19791951690673
H         5.93508191371467   -2.40392849811399   -2.85813294938904
H         3.52121508923798   -3.39878598295405   -4.42301972060040
H         3.86518718215288   -3.48450072626772   -2.78689860358530
H         4.14085790300215   -5.82054187555045   -3.66652931553553
H         5.79296516525553   -5.19095646428420   -3.28592764089284
H         4.36330048784124   -5.48017817905258   -5.99265337519330
H         5.92699638830200   -6.10465007587340   -5.43045664255389
H         4.88298738898378   -3.40755761940240   -6.24805797280292
H         6.50347516092187   -4.01407272458586   -6.72072571391957
H         7.04003057289464   -2.25876231380840   -5.30298529145122
H         7.10823147144957   -3.79678049102010   -4.28377374967190
