35
 energy: -44.216745080061 gnorm: 0.109108551967 xtb: 6.4.1 (025e99ea0bd20707e8cccc6e19fe66a0758c6dd1)
C         0.72851526254715    1.34298120559254   -0.00610394260149
O         2.14423378588558    1.21767622102770    0.02063736081659
C         2.75304367824555    0.59228582370402   -1.03240794765594
C         2.19921811870984    0.42060663317710   -2.30184590458928
C         2.78063949530002   -0.31605280689033   -3.33855940669376
C         4.09662563016373   -0.75195541980761   -3.13106742678540
C         4.73099822315294   -0.53619684197547   -1.90043450427893
C         4.04626151406071    0.10723703443437   -0.85592365069223
C         4.92054908006434   -1.24574356803882   -4.30237897176114
C         5.66525179880156   -2.57094129891467   -3.98965703903880
C         4.57168559683879   -3.57194896390654   -3.58130736818025
C         5.00458911287191   -5.01594945150814   -3.81646379361035
C         5.03606588529068   -5.23688232924439   -5.31631566857984
C         5.57840560167691   -4.00634524828876   -6.01451748363565
C         6.50164689662540   -3.21309195221535   -5.10752493658358
H         0.17782842124994    0.40381004494668   -0.12245636791597
H         0.41970570626529    2.12216299553336   -0.71002453216083
H         0.64661485775816    1.69675692407573    1.02692114778003
H         1.17321146749520    0.64141255543040   -2.58295872718324
H         2.18915953519458   -0.68825044299279   -4.17318115984070
H         5.74191085860044   -0.85210117437977   -1.66312335443473
H         4.42888547912606    0.14079709230622    0.15983478458323
H         5.58702125282815   -0.44973996796947   -4.66486818553198
H         4.30611364340216   -1.32595221790917   -5.20940616772922
H         6.26237064476903   -2.27128467246882   -3.11196107013979
H         3.68036305422135   -3.36224241336829   -4.18269754127489
H         4.22074434288117   -3.50005798245765   -2.54125559591057
H         4.12369964638986   -5.54743231490153   -3.43419021237823
H         5.94768124348068   -5.23307058660684   -3.29811035343558
H         3.99523055614473   -5.47983433015400   -5.56599051644087
H         5.65576822119833   -6.11707935646698   -5.52179066210597
H         4.82220379255788   -3.31477656469003   -6.40150892496449
H         6.23082157274871   -4.40489113480007   -6.80224588575464
H         6.93963506274099   -2.38373476234504   -5.67199667078426
H         7.28061467760758   -3.84268291479017   -4.65223339911193
