35
 energy: -44.217128252504 gnorm: 0.084775394004 xtb: 6.4.1 (025e99ea0bd20707e8cccc6e19fe66a0758c6dd1)
C         1.99155559626074    1.83802436626890    0.71720820235199
O         1.53693892127174    1.40880596961630   -0.55941649501038
C         2.31669500025938    0.64479695131067   -1.38339328103137
C         1.65801541385500    0.22451720229889   -2.53975628101473
C         2.22592212618730   -0.71407086532079   -3.40695132777202
C         3.56176920590801   -1.10914599867914   -3.25102907957093
C         4.11478616688881   -0.87009748970172   -1.98593391048997
C         3.50053559856023   -0.01219733944905   -1.05826047419221
C         4.23220204607261   -1.75718448623086   -4.44485203385672
C         5.51187265802621   -2.47859643760065   -3.94431821588815
C         5.03672235288212   -3.76487146932281   -3.24834295175406
C         5.53021360241031   -5.06750928488762   -3.87079175552598
C         5.37410500128711   -4.99208502237531   -5.37721103768601
C         6.11310191432674   -3.81990828975938   -5.99017508030301
C         6.51958078948865   -2.66802721204466   -5.08895054333330
H         2.21589547809479    0.95202913031661    1.32013474334378
H         1.17500933923457    2.40816661812498    1.17128068953498
H         2.92135931683819    2.40909972215340    0.62586410059040
H         0.62321604052476    0.54851480268453   -2.60820439096761
H         1.70260395356918   -1.13507045126887   -4.26361377096945
H         4.99782026242399   -1.37761369623737   -1.61078784372472
H         4.00616020288424    0.16760489822040   -0.11416964994957
H         4.53427740314025   -0.91538640893392   -5.08464247265523
H         3.55032684757860   -2.45380412069962   -4.95124117833501
H         5.91203858035708   -1.76958980637125   -3.20009240565472
H         3.94143630085370   -3.77076452229130   -3.22793246556976
H         5.41348871146101   -3.83163290916012   -2.21702060236889
H         5.03001125735060   -5.96440677195205   -3.48356328665469
H         6.55956212162541   -5.21453621693409   -3.51854276697223
H         4.28513415198614   -4.97839122760818   -5.51379930718700
H         5.70193064654640   -5.89239795512348   -5.90915533311270
H         5.45672567621532   -3.49809982461986   -6.80594486474850
H         7.01127516277036   -4.09390559769907   -6.55869222890629
H         6.47782560887101   -1.74134527619281   -5.67016686799631
H         7.52431783522661   -2.74661655178555   -4.64759676979239
