35
 energy: -44.216919841149 gnorm: 0.089073316088 xtb: 6.4.1 (025e99ea0bd20707e8cccc6e19fe66a0758c6dd1)
C         1.79004775524011    2.18964438716348    0.32510373670452
O         2.21640023656588    0.84066181832955    0.46346910812052
C         2.70720942657002    0.35941139830105   -0.71897388914558
C         1.84452491790919   -0.08470610652392   -1.72207125342815
C         2.42110450672231   -0.63879559900044   -2.86925634899803
C         3.79254702804606   -0.74456929085921   -3.13914674636214
C         4.61791557581533   -0.25811389017970   -2.11661771250479
C         4.07711234119955    0.34333178798102   -0.96784907683586
C         4.34669230979738   -1.40525830539092   -4.38456246575362
C         5.19826428149033   -2.68638203821273   -4.17944466536146
C         4.30979527474399   -3.88363154240582   -3.80278928298910
C         4.25736019882674   -4.79384400401598   -5.02614746540332
C         5.65047539811469   -5.35464281998691   -5.23612960515328
C         6.71380007342286   -4.29769043128844   -5.45529149080212
C         6.01557277439883   -2.94982643182912   -5.45386482172124
H         2.04335827129907    2.72888691176260    1.24373730896742
H         0.70381820065283    2.22208700013291    0.19454863307960
H         2.31851103263153    2.63051872061628   -0.52657822099856
H         0.77311871785854   -0.21646164373974   -1.59878883515437
H         1.62414455111101   -0.84605342866690   -3.58120586814241
H         5.68133525708974   -0.47077139363373   -2.16102319048332
H         4.66051106148277    0.73289464763411   -0.13888629935533
H         5.06092239776196   -0.72344150819899   -4.86851138149992
H         3.53165399866710   -1.68516221583431   -5.06575921420964
H         5.88705711328798   -2.44524645848048   -3.35233325565942
H         3.32924509300803   -3.48252584195658   -3.52397319846346
H         4.76163484964892   -4.40669081690550   -2.94705231440656
H         3.94305298369009   -4.22739838168279   -5.91210666733006
H         3.60217095847384   -5.66554783738926   -4.89920602751171
H         5.52122628911243   -5.83642141559852   -6.21382354476605
H         5.97003338907102   -6.07726754025920   -4.47672591254937
H         7.34866330538309   -4.50105335999153   -6.32446523086357
H         7.43305884296867   -4.29385144201210   -4.62604270905716
H         5.34009883730786   -3.03385459213875   -6.31116847203935
H         6.62287385671808   -2.05305694809985   -5.64739997685479
