35
 energy: -44.220853850732 gnorm: 0.103258751577 xtb: 6.4.1 (025e99ea0bd20707e8cccc6e19fe66a0758c6dd1)
C         1.24233594385657    1.57079935108093    0.41391681220625
O         2.43616978279928    0.80821135407840    0.29603685597511
C         2.84379155188793    0.27675031576728   -0.89646502502695
C         2.06804686804644    0.37395639073191   -2.05251018563246
C         2.58990147281309   -0.11535485742698   -3.25406547956162
C         3.84856739403559   -0.73231220404462   -3.25137248679151
C         4.62788252136417   -0.73362045977149   -2.08685370912360
C         4.11058564916625   -0.29972707643636   -0.85477622280524
C         4.61356391458321   -1.14438311274752   -4.49218884346835
C         5.21753425866052   -2.56700186551541   -4.35111478577180
C         4.08823742562403   -3.60150924850675   -4.21278194064607
C         4.59069654180256   -5.01163247546363   -3.91794515811761
C         5.91598098855811   -5.06457319690387   -4.65291195051219
C         6.03563168490417   -4.27215086892632   -5.93883193878823
C         6.11331657846708   -2.79975963747279   -5.57787504027408
H         1.36515907006569    1.88153373197070    1.45660323770903
H         0.28064586345483    1.06464306654792    0.28372540709416
H         1.12322770128921    2.47491531300306   -0.19221297405519
H         1.04400537873564    0.72043459443894   -1.94406107004664
H         1.95021929236841    0.07805333762502   -4.11335185589746
H         5.61709167242401   -1.17675243739678   -2.14303022641318
H         4.69604671126509   -0.31671000573042    0.05968509604066
H         5.39922672172998   -0.38694251804360   -4.62718154759200
H         3.84520585214865   -1.09471687349056   -5.27565666788401
H         5.85202918090418   -2.65574080461749   -3.45320787729555
H         3.44144052981732   -3.58007234491741   -5.09669205292551
H         3.41314241377795   -3.30734564244904   -3.39562206336538
H         3.92405159108992   -5.77461405265799   -4.33986576542330
H         4.66141511716281   -5.08242428025478   -2.82467389854297
H         6.19695973997284   -6.12128954328020   -4.74832102490688
H         6.69043856373241   -4.71725023945504   -3.95967318015942
H         5.20335918614855   -4.57340751163369   -6.58415179700275
H         7.00148535310287   -4.52589211631534   -6.39462084794773
H         5.94821893495996   -2.10522733797069   -6.40773224094964
H         7.13268261383012   -2.57570361296505   -5.22979781345806
