35
 energy: -44.213965105091 gnorm: 0.101385692333 xtb: 6.4.1 (025e99ea0bd20707e8cccc6e19fe66a0758c6dd1)
C         0.74374895155916    1.21740570975567    0.15786657991452
O         2.11353368938368    0.84097979936720    0.20952589353550
C         2.70958108604016    0.47568743295901   -0.96604037585769
C         2.06664485363337    0.05331928236987   -2.13047474148226
C         2.71640588079735   -0.63379930896334   -3.16060652684748
C         4.11301828889409   -0.66273197615541   -3.27688299387464
C         4.80326649263193   -0.18298677818866   -2.15579436206179
C         4.09273645855786    0.35218628931591   -1.06831502891278
C         4.78941313152617   -1.27654725565101   -4.48533992332359
C         5.69961739572687   -2.48210382445093   -4.12940771107246
C         4.80044652622828   -3.49716944695077   -3.40429642994714
C         5.17595660402072   -4.95351503680921   -3.66098906971214
C         5.14861566641141   -5.21785234469284   -5.15388425392260
C         5.38010418274583   -3.98576979806442   -6.00489854064437
C         6.37592940904557   -3.01013466223098   -5.40429137719501
H         0.16381793652104    0.30416632822200    0.32671623697177
H         0.59249799567004    1.78888219955405   -0.76329006934657
H         0.62227751716172    1.93048367711883    0.97991905605779
H         0.98321076839690   -0.02692709567762   -2.14463224705523
H         2.14170320198511   -1.05585485869027   -3.98313862480600
H         5.88493763300828   -0.27182727981229   -2.14348977543037
H         4.55662543345868    0.72518417626622   -0.16003523674379
H         5.34673132081044   -0.45980867627278   -4.96652580706103
H         4.01580423964049   -1.69538430441312   -5.14319057884293
H         6.47259555374946   -2.01376796795578   -3.49706166714933
H         3.77302013802864   -3.41033125717056   -3.77437344743555
H         4.77633770372784   -3.10355882072890   -2.37739565196396
H         4.45457932395793   -5.62625509181332   -3.17973132736398
H         6.19361745731109   -5.09044070162274   -3.27256611273135
H         4.21036390913246   -5.63226571027402   -5.54458438097094
H         6.03121977426111   -5.83278648441977   -5.36332101752443
H         4.38948135768171   -3.51848185925052   -5.99151205617836
H         5.57503930219117   -4.24599620830699   -7.05336598070336
H         6.36910778779501   -2.25583545579884   -6.19756402586751
H         7.39343906200097   -3.36514397386178   -5.18268707891111
