35
 energy: -44.220692958537 gnorm: 0.091843470844 xtb: 6.4.1 (025e99ea0bd20707e8cccc6e19fe66a0758c6dd1)
C         2.75324738006672    1.38326609678167    0.97502824712105
O         3.37975263286305    1.55516132096139   -0.28933664068455
C         3.24955049754392    0.67086764535835   -1.32458499809336
C         2.40460803234310   -0.43932015982044   -1.35957784659773
C         2.44337667045740   -1.28245510471611   -2.47452774912846
C         3.22195494839052   -0.94276426510984   -3.58956564685234
C         3.83328396087134    0.31540476078854   -3.67157354708745
C         3.91858999910393    1.05880995914476   -2.48247891622151
C         3.50087084700937   -1.92296747019271   -4.71030420815057
C         3.78361348956996   -3.37172723477086   -4.23105696711718
C         4.13382668471678   -4.26695814859502   -5.43129242919159
C         5.40953308106483   -5.05341948962145   -5.14512262638224
C         6.54196568246334   -4.06656529988933   -4.93758231264403
C         6.22183052756408   -3.06736326888469   -3.84444534315136
C         4.90130323983741   -3.40638781307922   -3.17696440581524
H         2.85758814981713    0.36403833146776    1.36119416817027
H         1.68538843211144    1.61943413339665    0.93151130265515
H         3.32151389333013    2.09932517860372    1.57780376969375
H         1.79152575337462   -0.59893451751092   -0.47689857533202
H         1.79239789241173   -2.15066018657846   -2.56066519980769
H         4.48065128429789    0.53409553445229   -4.51486850515312
H         4.58757348156740    1.91075847855944   -2.40542437015169
H         4.39182383113173   -1.65678868606275   -5.29729394967952
H         2.60544626517880   -1.92847997867721   -5.34658017168285
H         2.85423631884181   -3.67846373081007   -3.72226819029470
H         4.32905232427842   -3.56927740562404   -6.25301706837578
H         3.31661635047046   -4.95665599261912   -5.68920698826018
H         5.59415818540312   -5.69500253944809   -6.01624726589962
H         5.17194542905334   -5.70209114678631   -4.29187481244108
H         6.71382979010194   -3.47370841627843   -5.84515315330871
H         7.31589564812722   -4.77232101985388   -4.61518653546278
H         6.18761933057837   -2.08984030391109   -4.33754699909859
H         7.12783574487803   -2.99780661469197   -3.22855746763529
H         4.68565656650194   -2.79702286151858   -2.29352443182493
H         4.97092259332546   -4.40888621603745   -2.72906255628624
