35
 energy: -44.223732050646 gnorm: 0.090822123192 xtb: 6.4.1 (025e99ea0bd20707e8cccc6e19fe66a0758c6dd1)
C         0.98101582757711    1.72751759430645    0.08893700246191
O         2.32187670651912    1.26064448443405    0.15819724551377
C         2.80742421221519    0.55996751274173   -0.91136457020277
C         2.01520547262617   -0.31566936080500   -1.65521857454572
C         2.63895607923850   -1.01040331597883   -2.69626264316812
C         4.00060334613454   -0.78565274232280   -2.94179759662084
C         4.82951955306816    0.01098622801500   -2.14073453954400
C         4.17134747873642    0.73349120771783   -1.13144244949500
C         4.67335846133826   -1.45161367938922   -4.12439808326922
C         5.37183917927757   -2.80509045155419   -3.82648621165482
C         4.33115514940633   -3.93619065996172   -3.87383495032154
C         4.88301404631104   -5.24920316663248   -4.42091019199261
C         5.44224973647280   -5.06604286268056   -5.81843139591277
C         5.69587396613998   -3.60370886035422   -6.12354394427137
C         6.42412756461105   -3.02271835902332   -4.92506261459819
H         0.22897179196588    1.18298942021220   -0.49136911410538
H         0.94079824690009    2.77615231011334   -0.22209286731180
H         0.58504188109814    1.77934643851231    1.10850758538125
H         1.04461629775521   -0.60686234548964   -1.26325859552164
H         2.12856430736663   -1.76727250466717   -3.28924018592035
H         5.89766414465717    0.12099464305373   -2.29891722869227
H         4.68140698923397    1.44105811191959   -0.48454141027639
H         5.46507008743446   -0.81205070326249   -4.54075997383408
H         4.01304865509827   -1.56176998488992   -4.99532816918435
H         5.76799919966918   -2.71649853575184   -2.80086253304484
H         3.57866469579922   -3.70347823570506   -4.63521914784536
H         3.89205626501514   -4.09602609721125   -2.87800335376372
H         4.06794814871914   -5.98169035113317   -4.36005394206736
H         5.67370610260624   -5.65807992331390   -3.77835240262413
H         4.75060804006962   -5.50594976171062   -6.54837322287848
H         6.37080525707527   -5.64700236640592   -5.85404691379595
H         4.71996419689040   -3.12956730038486   -6.27407865805285
H         6.31524490353212   -3.48982854020569   -7.02266149658597
H         6.98180209667856   -2.09607894663712   -5.09427797177007
H         7.05940844021613   -3.83087211774064   -4.53292528799516
