35
 energy: -44.221779484198 gnorm: 0.090417327804 xtb: 6.4.1 (025e99ea0bd20707e8cccc6e19fe66a0758c6dd1)
C         1.53349960201597    1.60904041684267    0.74330302494638
O         2.83561654517649    1.53407417295876    0.17801822021100
C         3.06847338733196    0.68960904262817   -0.87237381323682
C         2.21086239984906   -0.32195013184576   -1.30702389331668
C         2.51256614433237   -0.98708140606089   -2.49952885602068
C         3.67717368209285   -0.75402919659228   -3.24401490601509
C         4.46604025900877    0.31849321272619   -2.80718205215258
C         4.17752795603479    1.04114470884670   -1.63739151047888
C         3.85588866751025   -1.62501239856398   -4.47043103588559
C         4.43388378268439   -3.02342094473514   -4.12561029082783
C         3.95661629392711   -4.18723155081742   -5.01015166615072
C         4.92249725127057   -5.34741411600903   -4.78903677321466
C         6.20889139843976   -5.01213323175306   -5.51851233556697
C         6.58416976561100   -3.55010128325841   -5.38634434108743
C         5.96780244888771   -3.10067409901928   -4.07395442370495
H         1.21334258359362    0.71327262663212    1.28546158584497
H         0.76314164468149    1.77921576087448   -0.01536737234704
H         1.57843336760109    2.44362717569242    1.45072911244282
H         1.45067733723017   -0.57718461449765   -0.57391860768150
H         1.82271123620429   -1.69446816750786   -2.95634094558584
H         5.33018659968611    0.61055729147045   -3.39540494060894
H         4.64997981832369    1.97819551238407   -1.35807517937720
H         4.46699943785753   -1.18336392143208   -5.27086564383824
H         2.84906284131560   -1.82524306742715   -4.86141966194587
H         3.95738724595703   -3.33549421801360   -3.18101696896042
H         3.96275013450070   -3.99755748772532   -6.08908121643166
H         2.91838978050668   -4.44781754715630   -4.75674209721174
H         4.47480284116271   -6.28097742863107   -5.15318321652176
H         5.24512025580378   -5.48527618118080   -3.74876609191076
H         6.16526417794276   -5.19194511416486   -6.60039298477407
H         7.02432309200049   -5.65082745356976   -5.16054779994344
H         6.16958435671100   -2.90620849704089   -6.16953768517067
H         7.64803709904500   -3.37235963668108   -5.18239419531982
H         6.28634387964567   -2.07608530842409   -3.85705701104263
H         6.20321159292213   -3.78683662781806   -3.24677277077755
