35
 energy: -44.226909809893 gnorm: 0.102906891103 xtb: 6.4.1 (025e99ea0bd20707e8cccc6e19fe66a0758c6dd1)
C         0.88131810637848    1.23324463552677    0.24129996097661
O         2.30076424606778    1.19210645512745    0.17683532350640
C         2.72701432071357    0.50514936646407   -0.92637268010688
C         2.00980491135830   -0.12197015002220   -1.94617707772052
C         2.66322573985149   -0.70142035185921   -3.03831786756375
C         4.05652113273569   -0.68755928794351   -3.19135159915565
C         4.79063479611078   -0.05515727370197   -2.17913493926076
C         4.10988789791985    0.51230921780901   -1.08897904025552
C         4.78950053411348   -1.18816571018767   -4.41886197363289
C         5.50341166202173   -2.53414888803568   -4.12358861404959
C         4.54789150502765   -3.64095493508968   -3.64754824262269
C         5.15913248593306   -5.03307351424239   -3.77495204553446
C         5.31410602070306   -5.31468234336164   -5.25685536227798
C         5.53760826572221   -4.07317731277363   -6.09623111543315
C         6.30263147904682   -2.99281045079625   -5.35339352378787
H         0.38363733330761    0.25859076010327    0.27594136694417
H         0.34211066994250    1.68475670227580   -0.59737995104886
H         0.60681601451837    1.77650033466546    1.15153488490213
H         0.93405186814407   -0.11373227827473   -1.79400333661962
H         2.04839359887139   -1.02838729281516   -3.87500607314501
H         5.83990978594762    0.22134239563018   -2.20416325983923
H         4.62625380764068    1.00957748624657   -0.27326885834888
H         5.48640386694192   -0.38311314064728   -4.69349159556135
H         4.03039408788430   -1.33161824654840   -5.19978542988853
H         6.22316385191793   -2.27756120825297   -3.32809205839994
H         3.59017221673467   -3.57459079012674   -4.17525309873290
H         4.22207527432189   -3.43159486086151   -2.61796196231298
H         4.43873247993359   -5.75851639708858   -3.37579063579350
H         6.08741660358610   -5.04005459536762   -3.18886800364510
H         4.47173180550406   -5.95437874114399   -5.54993485089647
H         6.20602185715424   -5.90985374845845   -5.48325082149451
H         4.60711207763332   -3.69541538229227   -6.53365946776894
H         6.06167835250954   -4.39572775912174   -7.00524883333459
H         6.38159742652480   -2.06783502313656   -5.93346262261377
H         7.27882625465513   -3.38280205168848   -5.02871478965259
