35
 energy: -44.227940419718 gnorm: 0.092090914334 xtb: 6.4.1 (025e99ea0bd20707e8cccc6e19fe66a0758c6dd1)
C         0.82010724108557    1.19741435852338    0.29101409839954
O         2.22871193467374    1.22813733090768    0.10242909848398
C         2.70090490423222    0.52887868875761   -0.97401794566532
C         1.91947330576436   -0.00839049407156   -1.99792015779221
C         2.58450192344196   -0.58296305941267   -3.08562238902904
C         3.98034319204530   -0.68637053268697   -3.16189531919853
C         4.74679825409675   -0.05602029723624   -2.17263146656563
C         4.08712519350790    0.56655660169176   -1.09973636034262
C         4.70944415535558   -1.25199651678310   -4.36319725594700
C         5.57929244704564   -2.50749825890880   -4.08823273783989
C         4.72276923715047   -3.66796524979669   -3.55499997622981
C         5.20430096078179   -5.08773554125935   -3.83823294816665
C         5.39007185156338   -5.38054379483734   -5.31441392244866
C         5.54076475692059   -4.05713036518870   -6.03670762311196
C         6.34314969076910   -2.97506628871897   -5.33701018076121
H         0.32394293660608    0.25353592276234    0.04251693911804
H         0.47244387474384    2.03282045818046   -0.32479320699518
H         0.69170654396976    1.50508167924619    1.33401930085150
H         0.85902601540420    0.22360568835649   -1.95210922470307
H         1.96675853000836   -1.07816704548503   -3.83270954256096
H         5.82302033951619    0.02112326179088   -2.29032338337878
H         4.63181370371833    1.06240084546447   -0.30177301674229
H         5.39243243072388   -0.47072165235591   -4.72698555095521
H         4.00755605979420   -1.63219842160308   -5.11782450088333
H         6.26998593113059   -2.22225920785818   -3.27689038520579
H         3.66923527596577   -3.60248054543807   -3.84805422637230
H         4.63771338552435   -3.64593903323078   -2.45849821530844
H         4.46172738005181   -5.82276374917714   -3.50223981549869
H         6.16049463177778   -5.26770839440022   -3.32974688522089
H         4.46701196575575   -5.78259160485359   -5.75147157460610
H         6.27900160207864   -5.96086803624768   -5.58649008271046
H         4.52509610515729   -3.68871978030258   -6.21715602595716
H         5.95718210091504   -4.23860751619882   -7.03603944809215
H         6.43671310137406   -2.16109870933389   -6.06295645019056
H         7.31293189028734   -3.43406658628635   -5.09347952873734
