35
 energy: -44.231286016074 gnorm: 0.086654622836 xtb: 6.4.1 (025e99ea0bd20707e8cccc6e19fe66a0758c6dd1)
C         0.87973434535619    1.11981510115980    0.40932967635023
O         2.19929525140701    1.40796009758566   -0.03384845743679
C         2.74959396693821    0.61208867818223   -1.00050614971623
C         2.00275438589293   -0.07987886303010   -1.95501168609279
C         2.70851603005716   -0.68705569298539   -2.99843377293607
C         4.10698135497718   -0.64165388586460   -3.08279568450264
C         4.82267067266981    0.14421275664002   -2.16975671099431
C         4.13378012009420    0.73035573256231   -1.09470291286644
C         4.76333938637997   -1.26004302350524   -4.29993837542321
C         5.36952247559136   -2.66207243926498   -4.02538100453958
C         4.35626465793602   -3.77159460687495   -3.69839173348388
C         5.04997304299314   -5.11206707241627   -3.92142457734276
C         5.40349512068653   -5.31032238434997   -5.38261407217006
C         5.67792844709070   -4.04483690549939   -6.16942567664914
C         6.24923689689314   -2.98688790034734   -5.24281285717716
H         0.89477280906817    0.06118709349380    0.68846574384426
H         0.16992391822835    1.35091269075478   -0.39114197465625
H         0.76782982603788    1.84150633111189    1.22520032744630
H         0.92056108574206   -0.05992003570550   -2.04950314057606
H         2.06113195893697   -1.29285705298175   -3.62999666134685
H         5.90054366224464    0.26952851363083   -2.19304336684749
H         4.56617533677979    1.34426923484606   -0.31020487444638
H         5.54809127304594   -0.62870211587708   -4.74127549417580
H         3.97473176590621   -1.32489512755884   -5.06187990717381
H         6.09229598245730   -2.54041921764510   -3.20106663916157
H         3.48089681043507   -3.84422761083978   -4.35303547395944
H         4.07672389856578   -3.62753703821371   -2.64428540754241
H         4.46733284932353   -5.93867303352970   -3.49501354908268
H         5.98225962130236   -5.12035548184030   -3.34174563120888
H         4.55724628089776   -5.84947306799197   -5.82745205116029
H         6.29354261441030   -5.94003032456481   -5.49343434651063
H         4.73210823937396   -3.68732873276315   -6.59071279585807
H         6.37333336553718   -4.24211030078414   -6.99555923978081
H         6.54761407288246   -2.08202428297481   -5.78178244352233
H         7.22225772697391   -3.37445861596092   -4.90593695420940
