35
 energy: -44.224548442926 gnorm: 0.094634843455 xtb: 6.4.1 (025e99ea0bd20707e8cccc6e19fe66a0758c6dd1)
C         0.93039620113327    1.03263511708239    0.50519385673121
O         2.12025916125299    1.48510635943600   -0.12739707829598
C         2.73233060300588    0.67039848320934   -1.03969456425962
C         2.09446450726399   -0.28912905323068   -1.82716075328586
C         2.81822289623008   -0.88124288894285   -2.86690488053069
C         4.16083957708363   -0.57357620397892   -3.12691487549924
C         4.79965453307001    0.41498699141605   -2.36658861288805
C         4.05570874152785    0.99550480834093   -1.32571485606427
C         4.82978858456368   -1.26640144879418   -4.29616581009751
C         5.35433940020257   -2.65934520643935   -3.85675675606591
C         4.29633084943164   -3.77342402538433   -3.79273231146085
C         4.79422247451026   -5.18785929911393   -4.07436716502046
C         5.39277803360783   -5.30708634207675   -5.46248600868051
C         5.76987648207787   -3.96405799766511   -6.05401899747238
C         6.33471457042928   -3.06655297188708   -4.96787746619821
H         0.84578830429987   -0.05591431257234    0.58727916486806
H         0.07248331894173    1.51255974469464    0.02389390807967
H         0.93611404169350    1.47171773621112    1.50827886327794
H         1.04074451534709   -0.55068955929759   -1.78557221226204
H         2.41565249381278   -1.65474153372036   -3.51852595675462
H         5.82273964415558    0.67013265090850   -2.62398721311085
H         4.57178627029100    1.79499843508430   -0.80248783675773
H         5.68620683787741   -0.77622872762648   -4.78143254195845
H         3.99940666024923   -1.44796643660965   -4.99198381541426
H         5.93151646907656   -2.51058142970655   -2.92862357896024
H         3.59326366790258   -3.47805953206393   -4.57921766264514
H         3.78141759780466   -3.75792570158315   -2.82079614487570
H         4.09148901935087   -6.02255323869707   -3.95593957731648
H         5.56900416572751   -5.47032096551382   -3.34967179404426
H         4.68652271503145   -5.84287129190468   -6.10966395868037
H         6.31369956311161   -5.90105270532658   -5.47274566593920
H         4.86034714400258   -3.49491321598326   -6.44457034318440
H         6.54221865653756   -4.03953731978155   -6.83041573626333
H         6.67318807707671   -2.17741195508453   -5.50931930122877
H         7.24204566011771   -3.54744820680819   -4.57296477010198
