35
 energy: -44.217267970791 gnorm: 0.088633103360 xtb: 6.4.1 (025e99ea0bd20707e8cccc6e19fe66a0758c6dd1)
C         0.90913654525204    1.07058277941213    0.36961640960684
O         2.18152656118690    0.47315470983559    0.15800656014675
C         2.52451249418219    0.16825460853376   -1.13042801357869
C         3.65184981551037    0.77517227396648   -1.68579344424255
C         4.20998443950755    0.38289577234148   -2.90648903652450
C         3.66647527245575   -0.71697699241212   -3.58454596785828
C         2.57105276763258   -1.37053193731629   -3.00458630064266
C         2.08537359006147   -1.00519208941411   -1.73789100459783
C         4.18942796182502   -1.15068317275131   -4.93845392332311
C         4.98896436763960   -2.47906296606054   -5.00682656004558
C         6.39591508228986   -2.39708972611493   -4.39166568907393
C         7.13512272506520   -3.72677961186979   -4.27617427062559
C         6.30618494784262   -4.86617249096723   -4.83653468582519
C         4.97850426698908   -4.86116932895589   -4.10641234976153
C         4.20758279523708   -3.56086528794955   -4.24479675096729
H         0.66953278212295    1.90749480460173   -0.29446540272098
H         0.85432653253451    1.42460785105811    1.40385715179143
H         0.12070382136712    0.33193874801195    0.19133403962883
H         4.26323468362635    1.52373299639803   -1.18947225740774
H         5.08834454894955    0.89062928894486   -3.30103091012440
H         2.12727268039700   -2.17362879887656   -3.58437173777197
H         1.34423269121516   -1.68086077392161   -1.32138821333280
H         4.76464274924274   -0.31115028099063   -5.35500859361645
H         3.18613794158139   -1.18340231597134   -5.38454951295113
H         5.04459440944540   -2.76091431908142   -6.07179619791764
H         6.22385125516923   -1.95960005346016   -3.40217103270267
H         7.06666415287520   -1.75082268294643   -4.97687535772568
H         7.40104556183900   -3.89133335528497   -3.22413791914531
H         8.10437368776245   -3.62616312463822   -4.78182586514983
H         6.84447484364600   -5.78704581016624   -4.57781146714591
H         6.18677783326681   -4.79101976127827   -5.92331514729168
H         5.15452182865883   -5.02202739414158   -3.03729435059096
H         4.39241341400103   -5.72325740966077   -4.45036454073413
H         3.94419246384934   -3.17087030167111   -3.25645229543782
H         3.28143655997539   -3.83036987826729   -4.77402864164951
