35
 energy: -44.213706948913 gnorm: 0.097595538822 xtb: 6.4.1 (025e99ea0bd20707e8cccc6e19fe66a0758c6dd1)
C         1.55204156485407    0.60428470915025    0.82635700425975
O         2.66638142931148    0.69648949982348   -0.05137889147945
C         2.72167693356390    0.27718899406024   -1.35206968669112
C         3.86495834230881    0.71611510404226   -2.02133849912969
C         4.22118804524140    0.20338865225659   -3.27261977881313
C         3.39764428918237   -0.74389358527893   -3.89657136774526
C         2.13977800258430   -1.03162872111527   -3.35029428486159
C         1.83401116442729   -0.50819841846116   -2.08285521452095
C         3.95883137356777   -1.36627395199558   -5.15845847811240
C         4.86048760680722   -2.57439075826208   -4.78968211502139
C         5.70257959944331   -2.36610225226484   -3.51997749825822
C         6.91418475280921   -3.26106691111819   -3.76265551707553
C         6.58952173887054   -4.57108319533323   -4.45389283697413
C         5.15537552479853   -5.03622563434871   -4.30320508605845
C         4.17669647820549   -3.94807019515854   -4.70615151539160
H         1.78551617588275    0.92159211502713    1.84794496698771
H         1.32758328950779   -0.46677270364470    0.80523113436580
H         0.61244856562120    1.09986077349840    0.56069722330776
H         4.55255326424116    1.43554983632351   -1.58533824228840
H         5.10515253794568    0.62010203959305   -3.75212977512623
H         1.42123179464985   -1.72426372338567   -3.77691424217882
H         0.82756550383842   -0.67535405131628   -1.71080857549040
H         4.62458127593324   -0.57800666448951   -5.53874400882048
H         3.15132527953891   -1.63061934614659   -5.85467546480832
H         5.57497124607838   -2.59112072999897   -5.62987760735613
H         5.07530444239304   -2.59802356249863   -2.65231325684276
H         6.07482166146209   -1.34041798406777   -3.38053791904679
H         7.55656685694438   -3.41671883082194   -2.88647569037032
H         7.47769473361631   -2.64849768492281   -4.47852567922152
H         7.09000975358442   -5.44991477076137   -4.02743276145308
H         6.86151186875839   -4.53745553359290   -5.51497168148376
H         5.11579112768143   -5.20748570086156   -3.22201414014081
H         4.98497872552578   -6.01062438234819   -4.77913939677480
H         3.27531580730247   -3.89409821895987   -4.08736622765787
H         3.82380044026221   -4.18043877712629   -5.72199362868293
