35
 energy: -44.216262002328 gnorm: 0.115632560438 xtb: 6.4.1 (025e99ea0bd20707e8cccc6e19fe66a0758c6dd1)
C         1.27684552470244    1.43139882214592    0.74944365762251
O         2.36848314453325    1.64969908759464   -0.13449507130245
C         2.78633450814938    0.75375729069132   -1.07966998451173
C         2.11281699351033   -0.32666994683259   -1.65126459799927
C         2.64772061722912   -1.19138448144377   -2.61128530228809
C         3.84884232238546   -0.74316343786765   -3.17810811786271
C         4.58308498269863    0.34712764578215   -2.69273108661833
C         3.97179755235649    1.13474593971447   -1.70285251918058
C         4.53786117993200   -1.45500877899340   -4.32404729639410
C         5.08988553657393   -2.81238380324685   -3.81284444075822
C         4.05682629821843   -3.91809075948392   -4.08643827661459
C         4.76838173292871   -5.24297678928507   -4.34374603595831
C         5.56618825556400   -5.15619348166599   -5.63034278005376
C         6.22256210444910   -3.82272385288914   -5.92508295748071
C         6.38174769612058   -3.15230444899551   -4.57250817715351
H         1.17173352508371    2.42058090264710    1.20694408113802
H         1.61105504926474    0.68004057100280    1.47177085087624
H         0.38240007153226    1.06829343543815    0.23259979722888
H         1.15170223526896   -0.51728019248749   -1.18180160973563
H         2.06833243917526   -1.97425969005448   -3.09748367542643
H         5.58647312218343    0.50337912212455   -3.07594672152109
H         4.50150220495447    1.95751661699374   -1.23194489324435
H         5.35377519702622   -0.81048688319661   -4.68193160721849
H         3.76232225995235   -1.71643966921062   -5.05675184726341
H         5.33411602926775   -2.65484137008850   -2.74878284526888
H         3.50777123664564   -3.72616646058241   -5.01477359205539
H         3.48613822246092   -4.08295948323658   -3.16060395321260
H         3.93586184464318   -5.95515539360122   -4.40921090502998
H         5.33961002284263   -5.62759211651608   -3.48874665873250
H         4.98032630273755   -5.46457987512019   -6.50576553049043
H         6.35784433909618   -5.91289681762011   -5.58937361658442
H         5.61476542717601   -3.17025784877964   -6.56127641061215
H         7.18313818156134   -3.97474480628284   -6.43418480274778
H         6.92661827218366   -2.21062686555770   -4.69356481244451
H         6.96698255010097   -3.87171527557835   -3.98055023831582
