35
 energy: -44.210523436069 gnorm: 0.110519969241 xtb: 6.4.1 (025e99ea0bd20707e8cccc6e19fe66a0758c6dd1)
C         0.71349474890407    1.00741363034024    0.06648133374695
O         2.12692688586211    0.91981308594828    0.18981473163245
C         2.70797907599166    0.46718671062300   -0.96264992757313
C         2.09677898394388    0.03892943842861   -2.14192911491690
C         2.86747460294551   -0.27814546298055   -3.26486482904253
C         4.24345369425898   -0.54393594670684   -3.23452526369310
C         4.82030004594188   -0.15227476416634   -2.01908808116871
C         4.09214271235170    0.32325820216375   -0.91567078165438
C         4.84469703740272   -1.10978383655281   -4.50455279192373
C         5.61993819143177   -2.41776087393192   -4.19354893868053
C         4.78110212811876   -3.44691423978440   -3.41775886304737
C         5.33828770518884   -4.85435823896173   -3.60877463805047
C         5.22783822465689   -5.31385915775335   -5.04961383347418
C         5.22493445850447   -4.15093541892269   -6.02092202125780
C         6.09561687397210   -3.00845533160897   -5.53009400428769
H         0.23351203515488    0.06174401640605   -0.20584555356007
H         0.50813897419207    1.84098728788051   -0.61247062905695
H         0.38957197148149    1.17994378728350    1.09813687314545
H         1.01960323278911    0.05603510229028   -2.28288700474341
H         2.24464778088300   -0.56765720816545   -4.10940186757405
H         5.89066841592046   -0.29168415485859   -1.90536444755827
H         4.72241999387213    0.52861356638849   -0.05551247917297
H         5.40393509930788   -0.41324378886438   -5.14587179362619
H         3.91009546422726   -1.40499429856399   -5.00057029846694
H         6.49765636794738   -2.27738012341827   -3.54040326777659
H         3.69796973714365   -3.42796546536175   -3.58075584651301
H         4.80017672432355   -3.14458713115191   -2.36027588631625
H         4.76684800259807   -5.62579000868317   -3.07686950866895
H         6.41700905205241   -4.81199295047009   -3.40922494223252
H         4.32376247204959   -5.86195359385794   -5.34447127219619
H         6.09962198166493   -5.93166963535223   -5.29313192181438
H         4.15325165143511   -3.94254213120347   -6.11002305518088
H         5.51492288939031   -4.53517088355526   -7.00746714199303
H         6.06287439067509   -2.25721802432525   -6.32562260777569
H         7.06033256231088   -3.43885240667383   -5.22260746800733
