35
 energy: -44.220843904690 gnorm: 0.084143756089 xtb: 6.4.1 (025e99ea0bd20707e8cccc6e19fe66a0758c6dd1)
C         1.81943911811088    1.20236565095589    0.55658268355895
O         1.36042305151782    0.34946908577923   -0.48387254545837
C         2.27085055118814   -0.10568634310004   -1.39744924768585
C         1.76555038268411   -0.59778243846381   -2.60168445803653
C         2.64631927335314   -0.86390930138479   -3.65473503325064
C         4.02536787932431   -0.75721122291018   -3.42730590046839
C         4.50635539830316   -0.12478233398548   -2.27312980048387
C         3.62549433172793    0.16085810152955   -1.21654673365670
C         4.92052160684152   -1.22165591305570   -4.55763252614897
C         5.86039530001625   -2.28871355947825   -3.93589977350021
C         5.18285786820090   -3.25421043984219   -2.94928351448331
C         4.68976402209748   -4.52926651796343   -3.62672861438827
C         4.40733654564159   -4.30837061672508   -5.10009126215309
C         5.76367569582770   -4.13075555335381   -5.75173276627621
C         6.58654559044871   -3.07137262617252   -5.04120218065079
H         2.36686010192681    0.57351897525959    1.26631395852362
H         0.95489035183999    1.66670148039957    1.04128823497032
H         2.50646108353614    1.96210962854197    0.16954821888948
H         0.68617958909428   -0.63256600235600   -2.72092426678089
H         2.38540470892406   -1.23975408281615   -4.64247862390777
H         5.55271286616812    0.13496380210775   -2.14773248213661
H         3.90373466598771    0.56672561854485   -0.24848348135799
H         5.61567958735767   -0.49346318877796   -5.00000800239353
H         4.31393468703386   -1.68302925972399   -5.34873910521946
H         6.66551850273668   -1.72862815870544   -3.43114616996488
H         4.36042338666666   -2.75977806770014   -2.42085092219450
H         5.95786790975021   -3.49505484905756   -2.20672767513239
H         3.87063206755814   -4.98453788033369   -3.05548067880219
H         5.44653461967942   -5.31620857881407   -3.74194622866873
H         3.79544972905725   -3.40389585395507   -5.21064131412612
H         3.90197956561723   -5.18222306114767   -5.52669880195712
H         5.58980023529988   -3.71246901417816   -6.74906645785996
H         6.31827373688027   -5.07271776975658   -5.85237894787153
H         6.88456990036360   -2.34740897905905   -5.80628614411461
H         7.51832752124173   -3.48258808859425   -4.62508891709173
