35
 energy: -44.226007700286 gnorm: 0.092300465069 xtb: 6.4.1 (025e99ea0bd20707e8cccc6e19fe66a0758c6dd1)
C         1.20879251463767    1.20786808218247    0.71647932750469
O         2.51717910009338    1.28449119365309    0.16608963335372
C         2.76888842986624    0.62889432203669   -1.00758077023175
C         1.95045609999316   -0.05377430273381   -1.90858093185691
C         2.49545302142768   -0.75011552089035   -2.99189994513962
C         3.86587065350204   -0.72361595227128   -3.28539064770097
C         4.64317324044035    0.12493590151109   -2.48589193874864
C         4.12098814591706    0.72282051722367   -1.32669775339329
C         4.46679102285639   -1.44961489854261   -4.47133649591424
C         5.40580520229895   -2.58876104264006   -3.99266687191456
C         4.51766628534030   -3.77204380108358   -3.57349624352623
C         5.15021228863939   -5.09616243195937   -3.99115257524373
C         5.26398719219242   -5.18506032980291   -5.50062606117780
C         5.69549354498165   -3.89014946882355   -6.15853774202808
C         6.37187614608650   -3.03759476594290   -5.10027604633960
H         1.20669461593272    1.58962222365507    1.74268385314372
H         0.91129362126261    0.15483769304619    0.69171626817064
H         0.48926191906286    1.72302167460094    0.07157757872336
H         0.88765673188017   -0.11332840036698   -1.69091116459407
H         1.81351067390824   -1.30058740802539   -3.63758441146687
H         5.72245943144914    0.08353072524518   -2.59305266818250
H         4.65607954514059    1.53741965055025   -0.84774260932123
H         5.01625681190492   -0.72352393300630   -5.08784649265611
H         3.65879150735236   -1.94956577477715   -5.02256111037875
H         5.96096948342909   -2.26792895351787   -3.09513992937253
H         3.51386765404354   -3.73312359837465   -4.01050468370341
H         4.43316606785863   -3.67548398505213   -2.48098918014818
H         4.39438711613762   -5.86123149631347   -3.77212971686581
H         6.04436726671066   -5.38769246469088   -3.42480307414876
H         4.30983452947026   -5.48180812791310   -5.95475690916316
H         6.01990401406848   -5.95151130205456   -5.70590740572046
H         4.85095316278909   -3.30005153205164   -6.53056833760175
H         6.43818084437539   -3.99005417184805   -6.96068241958633
H         6.86762578723002   -2.13831998349746   -5.47952857444944
H         7.20857048521895   -3.66890723245248   -4.76583154952519
