35
 energy: -44.225996612609 gnorm: 0.086919916500 xtb: 6.4.1 (025e99ea0bd20707e8cccc6e19fe66a0758c6dd1)
C         0.80903778305848    1.14598880664239    0.30172299817861
O         2.16358758149086    0.73618147968180    0.16782688293372
C         2.72100591655176    0.26608291437447   -0.98930716854640
C         2.07540647046179   -0.36018101547731   -2.05638922082798
C         2.82059604837890   -0.57172677154987   -3.22062018738384
C         4.21954153472777   -0.53703361170301   -3.30205394563232
C         4.85728289569161    0.09543369836616   -2.22654995886090
C         4.09904749874143    0.43606956908271   -1.09388904714535
C         4.87097871753776   -1.04047317399567   -4.57359849585520
C         5.53134544487273   -2.38579081376330   -4.17040818535345
C         4.54621418514610   -3.38024571151543   -3.53383242491158
C         5.05544398747505   -4.81507055418836   -3.63284801908531
C         5.19764151978539   -5.29507496019131   -5.06418774205287
C         5.40818455839637   -4.13882707129625   -6.02053605683222
C         6.24724471128608   -3.06837531557796   -5.34646494707205
H         0.08676390566345    0.33261097133874    0.42651600776909
H         0.55669468835018    1.73422949825345   -0.58613265005560
H         0.85872129825788    1.80953192184915    1.17134811939472
H         1.00105548878562   -0.50936683565768   -1.99327905621784
H         2.31434636957553   -1.10287844472742   -4.02471115344228
H         5.93690056090811    0.17184358512128   -2.14504092186981
H         4.52172842287199    0.87754018148099   -0.19626043475609
H         5.67019131137123   -0.44608829601185   -5.03961476955831
H         4.16828448696785   -1.10564908711864   -5.41540345542881
H         6.30061158298450   -2.11210652056505   -3.42877367733679
H         3.60978374170137   -3.35243046024040   -4.10165914962265
H         4.36346165162407   -3.19439642988733   -2.46514288928320
H         4.28577717008603   -5.44167393333907   -3.16428151087305
H         5.97955634523947   -4.82446892038011   -3.04024134956802
H         4.32147120139082   -5.89431618957807   -5.34335956912149
H         6.09258489640201   -5.91459796858637   -5.19172346151648
H         4.43964022029226   -3.70732162172931   -6.29548279434920
H         5.93488884484363   -4.46335191355601   -6.92732582281415
H         6.51381667559734   -2.29767304988455   -6.07670650171645
H         7.25988147752778   -3.46098673102291   -5.17071220573868
