35
 energy: -44.223886503544 gnorm: 0.084506015014 xtb: 6.4.1 (025e99ea0bd20707e8cccc6e19fe66a0758c6dd1)
C         2.75269595623868    1.03006683154830    1.08135920535247
O         1.87132186496546    0.77583468040291   -0.00456026766796
C         2.45501789434250    0.40851707685014   -1.18567998362249
C         1.65253778443201   -0.06211782387557   -2.22596729682425
C         2.20894299604322   -0.66024295026229   -3.36093531600415
C         3.58706074682410   -0.61659519537848   -3.61346223579317
C         4.38121383025941   -0.12004085350995   -2.57125669493731
C         3.82824154339469    0.45001520885469   -1.41232090855015
C         4.11572740491276   -1.21054382543314   -4.90279690777483
C         4.88176820881950   -2.51423681303311   -4.55337988600173
C         3.98751373487737   -3.72183097109366   -4.22676372149893
C         4.78587229958171   -4.85835730968957   -3.59527905094890
C         6.25155129411092   -4.66916953995339   -3.93491244483846
C         6.51267670267823   -4.20881325136195   -5.35467483998998
C         5.77143637433864   -2.93904449107255   -5.73218091085447
H         3.26767320642445    0.08388877168065    1.27727211386692
H         2.03289802050847    1.28300508311006    1.86615534252345
H         3.44611134598371    1.86075167291262    0.91359878491731
H         0.56692367701564   -0.08641573319564   -2.18962255608778
H         1.59210181462586   -1.21825465771658   -4.06314823787643
H         5.46561812175615   -0.16208344852627   -2.59013078561526
H         4.40877522073509    1.01032667303159   -0.68546172035008
H         4.92088069190301   -0.51806739773518   -5.18812112912250
H         3.40131347316867   -1.28845229145064   -5.73358307871499
H         5.50377901711297   -2.16919317527271   -3.71032433299505
H         3.63322331558592   -3.99327228526441   -5.22721400232224
H         3.08227818529757   -3.46580057706443   -3.65664724011290
H         4.40641126704952   -5.84467284529113   -3.89152956098781
H         4.65174390480176   -4.82366443277640   -2.50621494774391
H         6.88605259691331   -5.53515497155307   -3.70648583638622
H         6.55124982152329   -3.84615775664161   -3.27625459580635
H         6.22769825753420   -4.96945326044683   -6.08957949961253
H         7.60653227800823   -4.11829996131261   -5.37166844773003
H         5.08443081744651   -2.97963148047002   -6.58345723658717
H         6.51308170610428   -2.14992951716061   -5.92641203618028
