35
 energy: -44.225909745738 gnorm: 0.091341932865 xtb: 6.4.1 (025e99ea0bd20707e8cccc6e19fe66a0758c6dd1)
C         1.04937892962669    0.82134031245781    0.54964795550324
O         2.36284567812078    1.16565128208521    0.12901694879056
C         2.75248516639406    0.60104315003025   -1.05422682081321
C         2.05574996225749   -0.26413013114352   -1.89903716157320
C         2.68929500866290   -0.72411435039734   -3.05771229280216
C         4.02835463740511   -0.47198114595642   -3.38669817370331
C         4.67228464172722    0.48410860460496   -2.59002739968341
C         4.01711447388299    1.01367167662913   -1.46566559070135
C         4.77566113322539   -1.20384918653244   -4.48239408058673
C         5.26647301087844   -2.58100698649690   -3.96175381932475
C         4.24216850970304   -3.69121915554293   -3.67386136962503
C         4.84007644907138   -5.06889468006571   -3.94285514232534
C         5.23618599068183   -5.19851119286924   -5.40081761088520
C         5.96868861645007   -4.00542427437464   -5.98032012025094
C         6.41534804396636   -3.14326305415999   -4.81351501736615
H         0.82133045935297   -0.24956118834541    0.54917062349460
H         0.27828021759326    1.33756109637061   -0.03079556618006
H         0.98081850186241    1.26975789533476    1.54625565704244
H         1.04335058164438   -0.65636021318890   -1.85814229813139
H         2.22607828052054   -1.36453596814951   -3.80621983112316
H         5.71953477248799    0.72523859331292   -2.74227718834041
H         4.58591943885940    1.76361160643567   -0.92405354538497
H         5.72702840445681   -0.76215709633089   -4.81256636539499
H         4.13415584878178   -1.30294097310545   -5.36857378177350
H         5.77908728391313   -2.34749886782395   -3.01338901947536
H         3.26942092049417   -3.56460701644546   -4.16154399568841
H         3.95432204412152   -3.65050424421234   -2.61295492959741
H         4.18477717739855   -5.92496308899270   -3.73717792095718
H         5.70184626224415   -5.25453382368044   -3.28852682999857
H         4.32698279418080   -5.38138759759528   -5.98785010982930
H         5.77716393924510   -6.14796017324135   -5.48380711226385
H         5.30139126379676   -3.40226984820951   -6.60545192857663
H         6.89165093401690   -4.26466888890623   -6.51504832077768
H         7.03352297795612   -2.29692747169758   -5.12953899533122
H         7.03282259069098   -3.79622148947790   -4.17882104641908
