35
 energy: -44.218559156675 gnorm: 0.083643185907 xtb: 6.4.1 (025e99ea0bd20707e8cccc6e19fe66a0758c6dd1)
C         1.92383259669411    0.92423938540939    0.63287157640419
O         1.31686325830522    0.38672225130161   -0.53474948363863
C         2.21667214305676    0.06871529566185   -1.51448548687459
C         1.85464503076757   -0.83077605920026   -2.51823891058487
C         2.74427404464405   -1.23265790426471   -3.51951013172423
C         4.07329988734359   -0.78827140111819   -3.48642734512228
C         4.39773123187282    0.16381001524460   -2.51086440700536
C         3.49788862844972    0.61375554355639   -1.53019791155670
C         5.20071819751996   -1.12415493347936   -4.44076352361643
C         5.96575093977662   -2.33115818166792   -3.83545843717527
C         5.21697161223876   -3.35058258387755   -2.96095501085835
C         4.51967808533736   -4.51484707857377   -3.65817185461593
C         4.29575440364164   -4.14656481157260   -5.11198894276582
C         5.63642976277093   -3.98164409148512   -5.79845116843818
C         6.60626041266839   -3.23189866351898   -4.90314615617103
H         2.87100044204943    0.41933718472340    0.84916581575971
H         1.21027659139339    0.79982149197919    1.45345053041544
H         2.12516823578326    1.99665801950208    0.54128553068266
H         0.81267001582874   -1.09568188103697   -2.67502637950202
H         2.27313171542551   -1.90084772159045   -4.23820365298845
H         5.40755473212523    0.55921721313138   -2.46652314147020
H         3.76276360550470    1.52286924843336   -0.99855319421750
H         6.00158930048942   -0.37065409007972   -4.43388734549601
H         4.82019173436371   -1.31286954467607   -5.45380304666822
H         6.72317854974403   -1.84942175714757   -3.19442126291200
H         4.47616370096132   -2.75740874535471   -2.41373358569859
H         6.01470984892150   -3.74513140516549   -2.31444074087518
H         3.52352503654920   -4.68369211221238   -3.22951834230959
H         5.00145063024835   -5.49600689999048   -3.55582312946528
H         3.63182179941679   -3.27259739416903   -5.10328051201790
H         3.66616303579270   -4.89151042548327   -5.61165733909509
H         5.49427997602473   -3.50200789044486   -6.77293223467797
H         6.17323451038010   -4.91831733452514   -5.99716039574119
H         7.32627323054970   -2.67738889854176   -5.51338855363470
H         7.21580738128371   -3.98939521970862   -4.38825060256091
