35
 energy: -44.225395892330 gnorm: 0.093070721789 xtb: 6.4.1 (025e99ea0bd20707e8cccc6e19fe66a0758c6dd1)
C         0.95261205039047    1.05777480228086    0.45446815927743
O         2.29843582673429    1.23953813964798    0.03447313214884
C         2.83770595811750    0.61978669230262   -1.05903632843958
C         2.14594713798116   -0.36050940170310   -1.77188873031650
C         2.78091678966550   -0.89270502688983   -2.89842066687053
C         4.09406187746288   -0.56808332697968   -3.26605399249957
C         4.78787737024121    0.32527685771223   -2.43903198967746
C         4.17522805051881    0.90830413497105   -1.31715211351692
C         4.73469443045477   -1.25391872593451   -4.45511541481022
C         5.35723844025489   -2.58920147573968   -3.96727823435405
C         4.23928707347107   -3.61777387991799   -3.72879052499516
C         4.65594625065645   -5.05496105079882   -4.02666561707376
C         5.33608890454461   -5.27644520216848   -5.36371778851946
C         5.83941980175199   -3.99566217591082   -5.99782542643250
C         6.42329504100137   -3.02995339434277   -4.98256338359473
H         0.76101295037743    0.05264511988706    0.84413527268072
H         0.25194515454440    1.29705937188135   -0.35163394026165
H         0.70484893255632    1.73451390686337    1.27887302820105
H         1.09395162300312   -0.59540355912983   -1.63550875785978
H         2.28833771775367   -1.52352232603533   -3.63626109788534
H         5.80801282489582    0.63233436045599   -2.64662736001610
H         4.69392634792403    1.65877010449254   -0.72804644816703
H         5.53671603342167   -0.57642870196807   -4.78218413455054
H         4.11316644294343   -1.31429357029449   -5.35884131458934
H         5.77671216445922   -2.38663056725300   -2.96742722279865
H         3.39229644437865   -3.44773811490650   -4.40243550895960
H         3.83520605170125   -3.66656176567772   -2.70684432486332
H         3.75096089863451   -5.67491278481437   -4.06180443145469
H         5.26552446085680   -5.41038666784710   -3.18562954237060
H         4.72341001629188   -5.87547351238516   -6.04964128952009
H         6.09192646907551   -6.04264209791739   -5.15719985404114
H         5.15887576961325   -3.40577506239038   -6.62133469613201
H         6.60918277639323   -4.36037891569453   -6.69024735034031
H         6.89859291715843   -2.16645316197227   -5.45875094970718
H         7.21840249141150   -3.60687094423916   -4.48714815099105
