35
 energy: -44.221872991940 gnorm: 0.093351662726 xtb: 6.4.1 (025e99ea0bd20707e8cccc6e19fe66a0758c6dd1)
C         0.77032731538378    1.19817973260945    0.16733406665248
O         2.18632045102088    1.07341472962026    0.15881847314182
C         2.70778030784661    0.48904381514698   -0.96245639205245
C         1.99350594514478    0.11474626335899   -2.10148348670665
C         2.65640822694474   -0.45436724510933   -3.19334575932435
C         4.03113494783604   -0.72804214918251   -3.20392929670817
C         4.71027347140450   -0.35519360341361   -2.03637091122059
C         4.08843042871058    0.30841287280292   -0.96547776980927
C         4.76912955626445   -1.19535754046773   -4.44151873167466
C         5.57941985731917   -2.48709967908696   -4.15280078045940
C         4.79507588013226   -3.59983419592809   -3.43776284088375
C         5.48532570530308   -4.92487649711430   -3.74705151693382
C         5.18994390641947   -5.25599357757107   -5.19704077286245
C         5.30408628139625   -4.03478703008772   -6.08668437443216
C         6.24173768559198   -3.04215586507815   -5.42354488890795
H         0.26028390936200    0.22942454135617    0.18166792463478
H         0.53585043754586    1.72727706236773   -0.76168068712949
H         0.51587917660601    1.63723619581051    1.13763883205977
H         0.94279054129610    0.36017424341923   -2.22888668243936
H         1.97703537153693   -0.55565323731129   -4.03783778093808
H         5.78916331774097   -0.45349578450752   -2.10262704114988
H         4.69344722275883    0.70256158247206   -0.15437108371762
H         5.45515203679994   -0.38141707596552   -4.71734368266396
H         4.00987506250003   -1.37273040051411   -5.21529786974406
H         6.35455077152169   -1.97393418242349   -3.55905970340426
H         3.75356851158236   -3.62636274454725   -3.77637986479908
H         4.71348421933375   -3.41951965016376   -2.35569757883756
H         5.14151142490056   -5.69848099111095   -3.04855226595271
H         6.57179911296013   -4.96171365768130   -3.59384185385101
H         4.19623705137357   -5.69325321724646   -5.35844734207400
H         5.92252873675197   -6.00388576300139   -5.52103847407512
H         4.29676821661345   -3.60458033400404   -6.09684861518406
H         5.72759753322266   -4.49487142834619   -6.98888281405808
H         6.48121186854361   -2.22757194501576   -6.11448661887942
H         7.19603906264360   -3.48448044811118   -5.10086266830819
