35
 energy: -44.219091277368 gnorm: 0.109136234122 xtb: 6.4.1 (025e99ea0bd20707e8cccc6e19fe66a0758c6dd1)
C         2.01812854499746    1.79676298065065    0.75404823879999
O         3.11984694073964    1.78652577639456   -0.14416507753805
C         3.13853361834188    0.81171125083258   -1.10335981146467
C         2.14433686384831   -0.16602946214027   -1.16050147437029
C         2.16808977254433   -1.09441752625199   -2.20597947982678
C         3.23364118032565   -1.09275834187916   -3.11673793730678
C         4.23340736805103   -0.11928486297220   -2.98924397424049
C         4.13844444171720    0.93423515175224   -2.06460778901228
C         3.31308335998156   -2.11792086070178   -4.22911290501411
C         4.22880098401979   -3.35839649410822   -4.05245620155359
C         4.19463762174298   -4.03380909807117   -5.43350779860023
C         5.14720698989466   -5.22506103668456   -5.47054591999569
C         6.56506467706865   -4.70183462347551   -5.34696814245007
C         6.65520050874864   -3.31734677027329   -4.73794551372205
C         5.67135031183310   -3.06861156924345   -3.60903881077994
H         1.87588142717531    0.80635071663915    1.19866679724158
H         1.14280705448911    2.12878749597225    0.18698226945453
H         2.42013510389763    2.45419653859933    1.53197986584149
H         1.28075002180367   -0.24169120226766   -0.50554926244582
H         1.35632728415349   -1.80474242206097   -2.05950999986451
H         4.93083791152473   -0.17493593017663   -3.81903316172645
H         4.86930695222550    1.73743487271916   -2.06627512462230
H         3.63644325958112   -1.57340199814443   -5.12808059488640
H         2.28098167232022   -2.40481061134231   -4.47226521280057
H         3.81452094365295   -3.97131597341095   -3.23428936241193
H         4.47233063669321   -3.23975428993842   -6.13526730395359
H         3.11545875901253   -4.17952381738291   -5.58899403748534
H         5.01726501314181   -5.64420077666173   -6.47653316502515
H         4.76077160438435   -5.99515561030985   -4.79019550843044
H         7.09355789576615   -4.77444056846986   -6.30619943875343
H         7.10151838497447   -5.38057658086894   -4.67426870100563
H         6.57089588270040   -2.54345475657173   -5.50856518331481
H         7.67464589760586   -3.13082583514178   -4.37608573991707
H         5.82315923154509   -2.06947780226004   -3.18834761347578
H         5.98512395312236   -3.78765899857795   -2.83768748824014
