35
 energy: -44.216724271579 gnorm: 0.095399960085 xtb: 6.4.1 (025e99ea0bd20707e8cccc6e19fe66a0758c6dd1)
C         1.02439390608988    1.27297714838753    0.55171157023962
O         2.33425699134556    1.46829144666895    0.03519787760535
C         2.82203804054388    0.83025067992683   -1.07188870429568
C         2.13160734369531   -0.18633863482487   -1.73334230552497
C         2.60156485620194   -0.97546578501937   -2.78781427036637
C         3.92244143262052   -0.72055354165522   -3.18175379374375
C         4.58612613563503    0.37650812027384   -2.61658471246279
C         4.08283085360376    1.15838178587076   -1.56337918269240
C         4.70062244252555   -1.48278337940714   -4.23441106404411
C         5.41097999908116   -2.78340650828189   -3.77365321067334
C         4.33089396725211   -3.87793433175351   -3.76494413393967
C         4.77697671784364   -5.25889435684244   -4.23590166303272
C         5.33601082049944   -5.28719991266526   -5.64517006789420
C         5.92198167941196   -3.93049567552914   -5.97958211237132
C         6.47937304421389   -3.11418752944555   -4.82753322459804
H         0.92386403192833    2.06297743338164    1.30312999607673
H         0.87138426719649    0.30651369016269    1.04214834719949
H         0.29138567329570    1.32395539684517   -0.26014181293710
H         1.08380695444989   -0.20593389710726   -1.44663739092143
H         1.97519316222010   -1.72296733462253   -3.27141848089026
H         5.59193464904106    0.62365151511009   -2.94112419835471
H         4.60394191162875    1.99986057995851   -1.11655786804019
H         5.49689479151352   -0.78363575292917   -4.52826183299470
H         3.96207706005561   -1.71705174497695   -5.01308412082256
H         5.76984428450560   -2.62468272156237   -2.74277086649835
H         3.44873773803470   -3.52798926432151   -4.31215678849148
H         4.01625814262002   -3.93567827229471   -2.71246814672394
H         4.05512030987697   -6.07830865786266   -4.12609772418614
H         5.63793275483559   -5.61931962403925   -3.65788525117349
H         4.64100448092993   -5.64389931378630   -6.41616495208789
H         6.18689635628324   -5.97072074867361   -5.54622141076024
H         5.15486966546854   -3.27902898346564   -6.41201835489820
H         6.67964257003984   -4.01896496852807   -6.76896454016013
H         6.89522326415980   -2.21028473926470   -5.28395809502602
H         7.24177486683684   -3.81773456627252   -4.46115773711619
