35
 energy: -44.218669810399 gnorm: 0.106242152224 xtb: 6.4.1 (025e99ea0bd20707e8cccc6e19fe66a0758c6dd1)
C         1.27967572041259    1.89395566195428   -0.08365906100521
O         2.46955559872773    1.18950653212726    0.24590532662421
C         2.86840935057741    0.28026351900805   -0.69476460127800
C         1.97970810015800   -0.12985488804194   -1.68959233233052
C         2.53220345493904   -0.80171289675647   -2.78451175371705
C         3.92902182986817   -0.90578700322320   -2.83883044619861
C         4.74824145536767   -0.51037805271849   -1.77301211785464
C         4.24219966711193    0.07404132811655   -0.59987523742541
C         4.60728636616126   -1.18571730217240   -4.16406384771181
C         5.15749927899059   -2.62362395776083   -4.35955391324839
C         4.03124582403971   -3.66598226458914   -4.26108999737449
C         4.61152729557337   -5.07627114980090   -4.21418503926488
C         5.94324857400420   -5.13490023644145   -4.93698434300821
C         6.04575271874632   -4.17589709051945   -6.10559270938501
C         5.96377861305955   -2.72595379563218   -5.66377210648516
H         1.19967646009554    2.73967855009280    0.60712981648861
H         0.39990930697735    1.25507335077269    0.04216722261292
H         1.30363959954964    2.24390077273469   -1.12094876099216
H         0.90218232125577   -0.06243012433947   -1.56768493184086
H         1.92709307536262   -0.83614131215052   -3.68874026919241
H         5.80301578560008   -0.67886423047165   -1.96567765697690
H         4.92396882442705    0.36776118026820    0.19272304132104
H         5.44121224876707   -0.47426789411118   -4.25131454469221
H         3.86675131205644   -1.03193739909970   -4.96069565954438
H         5.86388482624194   -2.76751491164752   -3.52468262352516
H         3.51549360397099   -3.56469104962224   -5.22225730241245
H         3.29162821931598   -3.46950534561409   -3.47090117074168
H         3.94950201659044   -5.85750117656752   -4.60912243848893
H         4.77593615709534   -5.42296189581852   -3.18557923802010
H         6.11152879179550   -6.17189389971665   -5.25483225657469
H         6.73697512556427   -4.91852735785597   -4.21298247662552
H         5.15382965119901   -4.27255519048623   -6.73408395740796
H         6.96414682830801   -4.36195106597502   -6.67737731400541
H         5.50223899055928   -2.11968084381718   -6.44971714513867
H         6.91863316234280   -2.19220325542892   -5.54617483629469
