35
 energy: -44.217218739970 gnorm: 0.103553193020 xtb: 6.4.1 (025e99ea0bd20707e8cccc6e19fe66a0758c6dd1)
C         0.95315428528419    0.82669801600273    0.24437068911913
O         2.37083802631815    0.88778088161204    0.16000791791222
C         2.93016998493063    0.39719628507040   -0.98765997654783
C         2.20438011178685    0.24787203818355   -2.17028442362910
C         2.78699803235029   -0.17636787689350   -3.36864568333461
C         4.17642934114721   -0.36153479317185   -3.37744281523611
C         4.87604953612612   -0.33102990266224   -2.16375471486999
C         4.28522074562207    0.07828674674822   -0.95658625899844
C         4.92706747817914   -0.96657365722394   -4.54582533200770
C         5.17211185882953   -2.48577198426951   -4.34453976948047
C         3.86142683734690   -3.28828563153650   -4.29229556591244
C         4.17340045545428   -4.75377209866455   -4.00443573520418
C         5.63131602649597   -5.10560418085838   -4.22816356770773
C         6.17512866429325   -4.50553275180278   -5.50879690532596
C         6.21615239597267   -2.99645145874700   -5.34988980601254
H         0.57151927034556   -0.18707100023986    0.08479796697611
H         0.47623592200747    1.48570777646269   -0.48791806047569
H         0.82450790262258    1.25492100642044    1.24391105907350
H         1.12881608766280    0.40081619049042   -2.18575861325635
H         2.18214747126430   -0.33780596500299   -4.25918857784875
H         5.92634589455857   -0.59895143198243   -2.10761102817038
H         4.81968479849925   -0.02008161948478   -0.01639243544920
H         5.90761948381019   -0.48992562592677   -4.68910737416604
H         4.38463631091961   -0.77633703920124   -5.48190285623079
H         5.61241734530442   -2.79540611135104   -3.38175578089304
H         3.37760394475239   -3.26442469483875   -5.27486816664325
H         3.09735059189354   -2.78527931542852   -3.68138812356313
H         3.36045637536789   -5.29501596031954   -4.50518555431296
H         4.00898507804257   -4.92353380266261   -2.93233350555775
H         5.70378483915396   -6.19933561976728   -4.28474269148284
H         6.16817985643639   -4.72400925712713   -3.35228668875975
H         5.63431923224709   -4.69387775708922   -6.44256460305958
H         7.14435862781967   -5.01163526474090   -5.60603363718523
H         6.21472307247880   -2.63821721565469   -6.38427924137061
H         7.11363530867247   -2.59413376707931   -4.85680678233959
