35
 energy: -44.213419482717 gnorm: 0.097082954348 xtb: 6.4.1 (025e99ea0bd20707e8cccc6e19fe66a0758c6dd1)
C         2.25799156300589    1.76590699270258    0.89550833620744
O         2.17370800130086    0.53589800204354    0.18794241022242
C         2.71193067906207    0.39147898052371   -1.06110785877737
C         1.98497561609178   -0.49901738665017   -1.85244965113388
C         2.43142033497209   -1.01915720372769   -3.07131574367353
C         3.68628522518943   -0.62132581053373   -3.55290462360782
C         4.39439033497239    0.31940474532915   -2.79326593067448
C         3.89582237273095    0.88156045188766   -1.60613265888921
C         4.24446653572789   -1.44446391695089   -4.69550019455641
C         5.12894819940602   -2.48969621178466   -3.96494708559752
C         4.33010419257120   -3.75996565061132   -3.62891634844190
C         4.13043043830474   -4.66026345343837   -4.84441446437293
C         5.46036285732447   -5.29236503869951   -5.20647125413845
C         6.63347952289508   -4.34314983315611   -5.06998889181582
C         6.15029037308478   -2.90453702305554   -5.03560582946151
H         1.76653069364431    1.69105775941837    1.87105954490473
H         1.71516344151793    2.54465959635586    0.35064705699002
H         3.28768223885147    2.08046238927807    1.09500214811128
H         1.06155879774766   -0.84704487132730   -1.39786457174550
H         1.82087887819564   -1.59244199965786   -3.76669821965457
H         5.42161749661668    0.58314598879162   -3.02413692140522
H         4.49118074190778    1.62013411535188   -1.07759700421497
H         4.88972787002136   -0.96782590257562   -5.44760347202643
H         3.39129798767214   -1.92239072508531   -5.19585214657311
H         5.70882020099428   -2.11059078787668   -3.10662152433849
H         3.33352033205309   -3.46316450762628   -3.28419538077152
H         4.83856087118233   -4.31728637754645   -2.82835330675251
H         3.53028317887312   -4.26367972993359   -5.67334027205905
H         3.53509013516479   -5.47691926276073   -4.41558132961011
H         5.48124315555242   -5.70701757827376   -6.22250701727479
H         5.60601823092938   -6.07923595135578   -4.45772801059445
H         7.41906530924644   -4.44986872073936   -5.82585716659431
H         7.07417992393747   -4.46995222540623   -4.07263951999616
H         5.82343852928412   -2.60504078057578   -6.03648803920878
H         7.03677371629429   -2.26827674958284   -4.89494268350998
