35
 energy: -44.211797920677 gnorm: 0.117576857486 xtb: 6.4.1 (025e99ea0bd20707e8cccc6e19fe66a0758c6dd1)
C         1.01805419086333    1.00518523184936    0.29297163217842
O         2.39819715629382    0.66742885855722    0.33541468238149
C         2.89161207029376    0.28343151533657   -0.88103705673634
C         2.28177163051722    0.55396638663916   -2.10683261688966
C         2.88107143767396    0.22858314097833   -3.32767589731312
C         4.12118693547438   -0.42485367871979   -3.33184464755965
C         4.70427051511167   -0.77638567819928   -2.10715018278678
C         4.14097123913820   -0.33105164594372   -0.89957162965369
C         4.77987341358529   -0.96094028021869   -4.58619331638893
C         5.25399869570365   -2.43271460704386   -4.45348421709451
C         3.97446821945098   -3.26847647831719   -4.28331757248593
C         4.24078615777547   -4.74518709392386   -4.00719818411504
C         5.70406288591614   -5.07330791425143   -4.23195519037925
C         6.26975580804960   -4.53986836566243   -5.53244487242522
C         6.01198221852559   -3.04783233977117   -5.64034309782893
H         0.47298483480539    0.12080488943902   -0.05287105644117
H         0.91522012183626    1.95859876002063   -0.23468318148983
H         0.79968120232648    1.09567932620323    1.36214412964704
H         1.33947860273509    1.07808739178735   -2.24043779184794
H         2.36260174634403    0.42452591759865   -4.26456900868358
H         5.67372065328091   -1.26424438877378   -2.09242620203397
H         4.53419914264296   -0.33384642204456    0.11268159191822
H         5.65586424442455   -0.36397134994091   -4.87855179143457
H         4.25327930156974   -0.66313140274818   -5.50307453532009
H         5.82914466264250   -2.46798033875053   -3.51292126754016
H         3.33405102667981   -3.17943648014266   -5.16764813759952
H         3.33407999384406   -2.91584285216395   -3.46137584015989
H         3.68651867069742   -5.42938835652763   -4.66235431841370
H         3.97659321786070   -4.90139470913264   -2.95313181337408
H         5.78331099600882   -6.16479234105318   -4.14779540836485
H         6.32245563069864   -4.57659570171957   -3.47573752642144
H         5.76390557813345   -5.15315626391681   -6.28601258146947
H         7.29647290146175   -4.92825139892045   -5.52896856676332
H         5.48563581034054   -2.72752611624973   -6.54514069928133
H         7.01437298734314   -2.59432622726981   -5.64364763148973
