35
 energy: -44.221423186687 gnorm: 0.097711227535 xtb: 6.4.1 (025e99ea0bd20707e8cccc6e19fe66a0758c6dd1)
C         0.98156395766972    0.88428324487296    0.39612617330749
O         2.30097804610650    1.25655741536779    0.02031533493337
C         2.89735849615098    0.53190485363980   -0.97460984000118
C         2.20510170814511   -0.38063224827568   -1.77193401204718
C         2.82741274829372   -1.00615942209695   -2.85680155278081
C         4.12897971200678   -0.64912251927386   -3.23539318505811
C         4.83034263685909    0.23260430258488   -2.40227516794870
C         4.20897615133308    0.85873982493955   -1.30877964524051
C         4.81707628582423   -1.15011044814070   -4.48846203587605
C         5.47514035840103   -2.49267624582917   -4.07253541707568
C         4.38181139952080   -3.48672940806566   -3.64692650661542
C         4.86134348347876   -4.91838348825199   -3.86660123306832
C         4.97754654367715   -5.16246786553961   -5.35867275855897
C         5.51656217342317   -3.96534024640623   -6.11510336762330
C         6.35620144216177   -3.15924174869337   -5.14069489337620
H         0.81417888541952    1.45450952501285    1.31572422975351
H         0.82700571490651   -0.19565082857668    0.48470352380515
H         0.25687570519971    1.18461178621652   -0.36783421406901
H         1.18816427349943   -0.65916823539720   -1.50977891932584
H         2.08361172353930   -1.48004287279242   -3.49489842735894
H         5.89910034975201    0.34679920356591   -2.55318234108106
H         4.83058967214245    1.58506609062408   -0.79366861598561
H         5.60812519253042   -0.47912279553434   -4.85345864199989
H         4.07984410372867   -1.46877395127932   -5.23786510478711
H         6.03313044978037   -2.29197486186592   -3.14244873219063
H         3.52291317840048   -3.21700414377367   -4.27114200003097
H         4.10442714109089   -3.29336657831384   -2.60016743294846
H         4.28622656868755   -5.64028490709358   -3.27273908343264
H         5.84953031400710   -4.93033119404116   -3.38848128498556
H         3.93804268770198   -5.20453037214652   -5.70847822814413
H         5.48168534853267   -6.09168685238296   -5.64745278751049
H         4.63478270334893   -3.43926467364802   -6.49665317388202
H         6.20744665787775   -4.27578856407799   -6.90964847660091
H         6.97088972664868   -2.36489675660070   -5.57597603106135
H         7.03069374982897   -3.87917871840347   -4.65364576006510
