35
 energy: -44.226403729976 gnorm: 0.100565525713 xtb: 6.4.1 (025e99ea0bd20707e8cccc6e19fe66a0758c6dd1)
C         1.04574977713847    0.64043134150073    0.44976902451975
O         2.40603095249119    0.92309126706210    0.14908002265169
C         2.84822796263924    0.42333375531558   -1.04480913503883
C         2.10603122052972   -0.31280101731964   -1.96942735529189
C         2.63613138886551   -0.62320385841107   -3.22566648254570
C         4.01127192996273   -0.44959012359878   -3.43478440096197
C         4.77684894189217    0.26201821881017   -2.50154103728532
C         4.20109113069906    0.65303173490802   -1.28109610306952
C         4.77368226706720   -1.11625083119403   -4.56125735761692
C         5.44881440728081   -2.40156050911827   -4.01289450895063
C         4.31445821392830   -3.36068053843459   -3.61543049712265
C         4.84535887666016   -4.78266291552738   -3.77019488197500
C         5.07173728954633   -5.23176089548969   -5.20072680715055
C         5.67865199269931   -4.05640451089745   -5.93966629228187
C         6.39793931727435   -3.12398050118933   -4.98181871970062
H         0.78081366792172   -0.41936009079490    0.52384556580937
H         0.31248055555808    1.06307116601400   -0.24426528962625
H         0.90483937078728    1.11589820540853    1.42602784807606
H         1.02685051283751   -0.37017531466744   -1.85741606930011
H         2.08202787011450   -0.99394875687257   -4.08618412872488
H         5.80255213196808    0.59890812017564   -2.61332055037166
H         4.71957767044433    1.26451579525245   -0.54859931614059
H         5.47131918837223   -0.40756610110248   -5.03059093389824
H         4.10728763642535   -1.39017169212766   -5.39044263877730
H         5.97262559134741   -2.11663883062750   -3.08491999095359
H         3.46479318143456   -3.25190430658721   -4.29832135063944
H         3.98554739357739   -3.16408965935365   -2.58431194569618
H         4.23905982191884   -5.54442065949075   -3.26353920757816
H         5.73700740077756   -4.83617674477335   -3.13195211981522
H         4.15871611456427   -5.56732850269326   -5.70914405860603
H         5.75864416298765   -6.07034847601488   -5.36174724632936
H         5.04513222325860   -3.44756511459861   -6.59375962452015
H         6.42800045023560   -4.46980397800535   -6.62711027414281
H         7.02534690855618   -2.45367357810194   -5.57792581089753
H         7.13354392093759   -3.69626712522393   -4.39714799405689
