35
 energy: -44.227492872988 gnorm: 0.092924354326 xtb: 6.4.1 (025e99ea0bd20707e8cccc6e19fe66a0758c6dd1)
C         0.73099406987625    1.06401713740500    0.15412121113026
O         2.14000130901502    0.99958912345076   -0.02257913299262
C         2.70493159413649    0.33757370384468   -1.07768881551893
C         2.00493658411159    0.02296061421256   -2.24331948092265
C         2.71383283543388   -0.51557259529059   -3.32171687833431
C         4.11280448738472   -0.60162321520081   -3.30281852859358
C         4.75421558493036   -0.38957135959573   -2.07519334940528
C         4.07329535015177    0.11190115356670   -0.95325421542682
C         4.86853604991447   -1.13058421752166   -4.50436644924478
C         5.71337885249255   -2.37253890601959   -4.11409042401656
C         4.89445719626959   -3.41227195452488   -3.33116300117157
C         5.43472954107230   -4.80768740973398   -3.62909404896980
C         5.10425767413995   -5.22132975600988   -5.05002547773714
C         5.19830188424064   -4.02411019547980   -5.97396306307439
C         6.18394086263883   -3.00382390019571   -5.43378490402617
H         0.29323960748591    0.08129602032724    0.35775468878746
H         0.33235515759676    1.58863818771967   -0.71986481512347
H         0.80727087595202    1.68920547564915    1.04984838209894
H         0.95408415862555    0.29080034696752   -2.30995575173693
H         2.09449121039394   -0.72497303863189   -4.19208491224666
H         5.82093720914433   -0.46544952548887   -1.88971024893058
H         4.70363293098140    0.32832149491065   -0.09585736598751
H         5.48084577244311   -0.31173911956863   -4.90905749133294
H         4.15751474651818   -1.33729076397319   -5.31577496772067
H         6.58891093552948   -2.00363759079678   -3.55368823261343
H         3.85047759391578   -3.38443585044401   -3.66197200119412
H         4.85933473235916   -3.19779501838958   -2.25283011037466
H         4.89441914170760   -5.50143841830843   -2.97232347449558
H         6.47116140532674   -4.78812072491456   -3.26759608315230
H         4.07506979294469   -5.60250015249164   -5.03650434166710
H         5.73165497932399   -6.06530577205766   -5.35836761032815
H         4.22419429940521   -3.52865297672061   -5.89975150956830
H         5.42102713723832   -4.37752095731153   -6.98909643036516
H         6.32596241004067   -2.20861264369198   -6.17254349797335
H         7.12290364804137   -3.55483235841768   -5.27502553332463
