35
 energy: -44.220672833535 gnorm: 0.107455120779 xtb: 6.4.1 (025e99ea0bd20707e8cccc6e19fe66a0758c6dd1)
C         0.89868970128032    1.11015400699888    0.35273127596310
O         2.28059151133730    1.24850157702054    0.04960965813130
C         2.80328923166447    0.61310639695267   -1.04296854750227
C         2.13378143465667    0.09782777444532   -2.15378648708915
C         2.86801390487027   -0.48907189425816   -3.18913391815488
C         4.26647255409115   -0.56911757282269   -3.13631702187653
C         4.90910539286878   -0.06961618068143   -1.99572106255392
C         4.19018932097020    0.53207773668380   -0.94929927436917
C         4.95078168508973   -1.14330330288247   -4.35970538621371
C         5.32780371894327   -2.63550348315350   -4.16040865156990
C         4.03020120906320   -3.42858740994371   -4.38822097244781
C         4.24483510306620   -4.92685973457613   -4.19598741606557
C         5.61855482478570   -5.38393091578909   -4.64691737927007
C         6.02968792645134   -4.46675541317998   -5.78075966134880
C         6.32485241737737   -3.07837329980480   -5.24267621757201
H         0.44907637673299    0.20583201999560   -0.07021784274640
H         0.36155532019523    2.01938135534072    0.06500903665340
H         0.91035321747805    1.10806170705642    1.44765837661986
H         1.04859511803458    0.12551391571726   -2.19932176131138
H         2.31493143267860   -1.03167028713738   -3.95376446174305
H         5.95073501356579   -0.30734716222821   -1.80454521434292
H         4.58085167602410    0.82240282878269    0.02146684050574
H         5.82824308884943   -0.50737842967859   -4.54643076683088
H         4.27482089259433   -0.99266043867905   -5.21237554996868
H         5.69528268949746   -2.74203950949906   -3.12585343094437
H         3.62471834365460   -3.17695615929502   -5.37430829745510
H         3.21127589944868   -3.04158739078909   -3.76401900977390
H         3.45025476414297   -5.39820152093629   -4.78848415219753
H         3.97059167259568   -5.16115580290929   -3.15909275572803
H         5.55439215074434   -6.46190817917052   -4.84325779120554
H         6.27243614543475   -5.22874562512276   -3.78126473014988
H         5.23875813178409   -4.18021243222737   -6.48232503734443
H         6.82532126347367   -4.92330289661257   -6.38369700983558
H         6.49633640604815   -2.29767356385148   -5.99060434552734
H         7.27740249026365   -3.21441245616386   -4.70918987455252
