35
 energy: -44.222624615451 gnorm: 0.100746689368 xtb: 6.4.1 (025e99ea0bd20707e8cccc6e19fe66a0758c6dd1)
C         1.00660895933713    1.26973569666234    0.33851994000967
O         2.41171072019833    1.27387378388115    0.12323571993372
C         2.87394205142810    0.58783436103598   -0.96596544592584
C         2.12613602686969   -0.36547011621657   -1.65854465886996
C         2.63990938750708   -1.07095651699225   -2.75116477943782
C         3.88646045170360   -0.63465565731355   -3.22088335084290
C         4.68180559936968    0.29745737271818   -2.54115607928102
C         4.16822040212090    0.89460717391310   -1.37774866061402
C         4.57842983640128   -1.23148111760093   -4.42903280017356
C         5.16748859952185   -2.60424108378604   -4.00824063866488
C         4.13011558084990   -3.73805287716636   -4.06283806359195
C         4.86512086712880   -5.07506769665728   -4.06293796694528
C         5.55357191000547   -5.29990710744287   -5.39516924263545
C         5.99893297074036   -3.96089699450335   -5.94702528771920
C         6.40308209608258   -3.03505736240781   -4.81400047578488
H         0.62799273131307    0.35117783464992    0.79866943787849
H         0.29173613923684    1.46877135162590   -0.46605041524791
H         0.87400055478381    2.08314050070796    1.05948693443728
H         1.10895958949561   -0.62911056693484   -1.38229270864582
H         1.89440919476156   -1.76473781559407   -3.13570355856634
H         5.62865318843944    0.67450078234937   -2.91448489770785
H         4.82102204028251    1.64246741117456   -0.93746730820898
H         5.43000762007216   -0.62269728467135   -4.76578619951254
H         3.80653698345821   -1.37797862545568   -5.19674536474233
H         5.67712877852828   -2.47224448027718   -3.03894243270916
H         3.38757709742033   -3.62998339054886   -4.86099872318917
H         3.52518308949918   -3.69588892129715   -3.14506104798347
H         4.25038001963802   -5.96378414549157   -3.87097406292542
H         5.65168540710090   -5.03016622497372   -3.29837617993877
H         4.84052396383659   -5.82219785240184   -6.04591987936733
H         6.42328615692628   -5.95079760008148   -5.25047487343386
H         5.22623770092806   -3.44926738402024   -6.53101840291249
H         6.83066535671464   -4.11716163395653   -6.64617052249633
H         7.00307558247642   -2.18404323209105   -5.15175495443182
H         7.06310072292850   -3.61060381977244   -4.14797670792602
