35
 energy: -44.222613999201 gnorm: 0.101459421612 xtb: 6.4.1 (025e99ea0bd20707e8cccc6e19fe66a0758c6dd1)
C         1.31732480196190    1.58425624641240    0.71031939655773
O         2.57719541351658    1.51667335358342    0.05546523306950
C         2.75737713556534    0.69542089287946   -1.02330537786144
C         1.88156250371663   -0.12490473538942   -1.73582474840931
C         2.37270861590443   -0.81854582179477   -2.84628879463089
C         3.70471423192432   -0.73271708742088   -3.27439859498789
C         4.58293062612933    0.02169273917360   -2.48507004806655
C         4.08159608459248    0.81240184041083   -1.43754092166293
C         4.26550142144715   -1.44277062872495   -4.48930148679013
C         5.07191672166616   -2.68495095295426   -4.02539568584866
C         4.21741709055148   -3.96338118268542   -4.01542725988789
C         5.06005749395117   -5.22792365488650   -4.15228811787383
C         5.70553628196897   -5.26040093534294   -5.52402429178745
C         6.20821750253473   -3.90536970510458   -5.97904253965334
C         6.38164278777296   -3.02857464328782   -4.75208905601386
H         1.47922680644260    1.79518018132872    1.77245648324216
H         0.85441725518132    0.59243883973348    0.70774305917644
H         0.60221572176744    2.30308988372592    0.29691526913382
H         0.83136583707551   -0.21634972802202   -1.47277702232139
H         1.62741980814896   -1.39858185625388   -3.38765364546789
H         5.62402523527219    0.14733479101949   -2.76505681895419
H         4.85791544338963    1.23614711790162   -0.80741332143431
H         4.91139630570871   -0.85035053210501   -5.15342764246168
H         3.51063192235678   -1.77149841010335   -5.21646911216457
H         5.35424278486041   -2.47952683017801   -2.97907443927944
H         3.50552897808823   -3.95557345094676   -4.84804794637899
H         3.69175483113678   -3.92461437240133   -3.04991594867679
H         4.49290946328092   -6.15160396434673   -3.97986081799419
H         5.83114645098271   -5.25005377586551   -3.37114362309944
H         4.90388463036718   -5.66735232536148   -6.15366433387760
H         6.37665696272223   -6.12299972812012   -5.60475916127802
H         5.60512761935295   -3.36642407743799   -6.71775154816306
H         7.19383042230732   -4.03009675650578   -6.44595986983569
H         6.84536120764421   -2.08730081710144   -5.06396103731668
H         7.01641941073910   -3.54449012885726   -4.01632019205452
