35
 energy: -44.217425409115 gnorm: 0.104977917825 xtb: 6.4.1 (025e99ea0bd20707e8cccc6e19fe66a0758c6dd1)
C         2.55740949727103    1.61364329345038    0.67560038727589
O         3.55614442969255    1.62780622940573   -0.33583588250906
C         3.41609123584387    0.75314753648338   -1.37796080405693
C         2.58191619075284   -0.36250698091671   -1.29348446311791
C         2.64204930548361   -1.33069689503913   -2.30070100448921
C         3.30116224071769   -1.08030862410094   -3.51221220972758
C         3.99683321960447    0.12496103364705   -3.67593367342006
C         3.99651937637069    1.04079875670594   -2.61051562171001
C         3.26281958528296   -2.10369205750767   -4.62839478617388
C         3.66620054692073   -3.51629944838150   -4.12804455840359
C         4.10193293654237   -4.34276070798792   -5.34941752105029
C         5.45326775001268   -5.02846225784945   -5.17179709767472
C         6.46007001755527   -3.92094987830765   -4.92864427677366
C         6.08823777905591   -2.96331835708396   -3.81485690583006
C         4.83018641593680   -3.46070207459372   -3.12625181565855
H         3.08199922454148    2.35275589554870    1.28989228978903
H         2.54970564186795    0.62990444924389    1.15538194114596
H         1.55547821855349    1.90312409585505    0.34192337901896
H         2.03716854533560   -0.65602973195245   -0.40042022528014
H         2.11618255600204   -2.27673818090088   -2.18475636402773
H         4.34090308487292    0.35708092766570   -4.67882588060624
H         4.72199135269223    1.84835516401146   -2.63942326434193
H         3.99721186740084   -1.71737110936010   -5.34994134554867
H         2.23479104473652   -2.11258038856227   -5.01535860394876
H         2.87335251087229   -4.00298593245767   -3.53540345024557
H         4.16699779860056   -3.78763796511406   -6.29160017667175
H         3.41374034356660   -5.16610692268805   -5.59134257872493
H         5.78817956296698   -5.61938744914907   -6.03389620589499
H         5.44029402607564   -5.64467349305511   -4.26329831410631
H         6.71302499805582   -3.23670962992928   -5.74872381399661
H         7.41199355313009   -4.40146065535485   -4.67576339394074
H         5.96485937378313   -1.94799652323960   -4.20699226475536
H         6.90960291769298   -2.90795177493823   -3.08870588194717
H         4.62008821566757   -2.78887997583690   -2.28791469008333
H         5.02704862814581   -4.50636892264556   -2.84644458779829
