35
 energy: -44.216600852633 gnorm: 0.106086588537 xtb: 6.4.1 (025e99ea0bd20707e8cccc6e19fe66a0758c6dd1)
C         0.79905138156895    1.27994747538313    0.22160048772359
O         2.14212103626505    0.81430087838387    0.21806149448856
C         2.78601869763811    0.35798212799418   -0.89900434328578
C         2.01843132047092   -0.07830672710991   -1.97980539725716
C         2.60191341474888   -0.51615471822274   -3.17283961501390
C         3.99774014820274   -0.60675762285434   -3.26417624238878
C         4.72593527594322   -0.17202807267571   -2.14874814734949
C         4.17683390919487    0.34919363943612   -0.96524061853800
C         4.72610200076649   -1.10646765047036   -4.49479650527978
C         5.58182466681500   -2.37813406985274   -4.25163112511335
C         4.78035539477274   -3.47298788181445   -3.52803250070898
C         5.33298026785109   -4.88068428007259   -3.73011665136279
C         5.17312950019002   -5.34173243538154   -5.16581860473812
C         5.46144565348909   -4.16927682924354   -6.08127548275970
C         6.29716539470255   -3.09673320016681   -5.40638035465753
H         0.07972832768276    0.65438973811823   -0.31699789242081
H         0.80114214913241    2.18476057155415   -0.39427343706009
H         0.38550192235729    1.44579606397462    1.22183888770118
H         0.93421011224299   -0.00894380024530   -1.99087309664878
H         1.90815855862194   -0.70735267297343   -3.98961415538207
H         5.80794905357730   -0.21291045506403   -2.22379026003920
H         4.79329820541708    0.75286623971791   -0.16754845827115
H         5.21779968681495   -0.18284743098799   -4.83297457224527
H         3.88723223826367   -1.24251956521085   -5.19082098378193
H         6.29845102974409   -2.10172436502351   -3.45996228516433
H         3.79616086840560   -3.55323629640376   -4.00239963476133
H         4.59923447151518   -3.25727937881253   -2.46468833357080
H         4.87232323624048   -5.56397333292463   -3.00521352313799
H         6.36243299067638   -4.83433074916818   -3.35152309051070
H         4.16352395862272   -5.74824287549921   -5.30775978422043
H         5.88702538749974   -6.13287961655105   -5.42162431974845
H         4.50477371790380   -3.77493825832258   -6.44064533931665
H         6.13983400093774   -4.45594355557893   -6.89528586116031
H         6.64290959691132   -2.43061131196001   -6.20327300345991
H         7.22046667122257   -3.49485552049025   -4.95974925566384
