35
 energy: -44.221572482220 gnorm: 0.091546271976 xtb: 6.4.1 (025e99ea0bd20707e8cccc6e19fe66a0758c6dd1)
C         0.84950576246921    0.95493280798623    0.42629913485119
O         2.13982471627031    1.35591310844205   -0.01525174535067
C         2.76177937749534    0.59623880577678   -0.96747778971368
C         2.05224153373128   -0.14276494041580   -1.91515852361065
C         2.68703728906531   -0.57153853648723   -3.08506467361548
C         4.07500651554429   -0.52701494739582   -3.27596412571395
C         4.76442439095250    0.12706138578146   -2.24624334077138
C         4.13531775196521    0.73660791078475   -1.14781158819368
C         4.76015433538214   -1.17765101656945   -4.45997953449438
C         5.42850274596647   -2.51544615359797   -4.04508105966505
C         4.40933763794343   -3.59676616881587   -3.64922459890124
C         4.89689717555650   -5.01677096461291   -3.92072686305233
C         5.41010985228575   -5.35221967929332   -5.30760994215090
C         5.67779712795643   -4.08010323642907   -6.08600760861212
C         6.33613639546432   -3.08683325381403   -5.14565400037519
H         0.92018921311821   -0.12956799712195    0.55933376406649
H         0.14537482175097    1.15385808823154   -0.38771570253146
H         0.87357011431506    1.46556951678627    1.39463628259657
H         0.97881189108270   -0.26711328221254   -1.80221773053548
H         2.13059559669544   -1.09637914560746   -3.85958909950469
H         5.83781955130784    0.15711018460554   -2.40428255925806
H         4.64828224390001    1.30523266285017   -0.37785970498875
H         5.61197839401534   -0.55432216366637   -4.76830118279418
H         4.06114691246630   -1.37710451292138   -5.28355077673678
H         6.06448360441670   -2.34710740442599   -3.15970789910654
H         3.44386974650934   -3.41870077322501   -4.13529796239616
H         4.35174492375767   -3.57478679617408   -2.55093695314820
H         4.14304519466600   -5.76921226006089   -3.65593890452773
H         5.80246213319102   -5.09618019149439   -3.30517757556903
H         4.63704469857265   -5.93810752305110   -5.82123148442978
H         6.29942302002810   -5.99227513113787   -5.28642334745567
H         4.76912635542278   -3.59342149436531   -6.45658702569704
H         6.32577605187702   -4.43787713214387   -6.89663860392299
H         6.74138217488554   -2.27701746820056   -5.76069023611392
H         7.16982807732644   -3.58384163958763   -4.62757407119626
