35
 energy: -44.224997063014 gnorm: 0.088371422932 xtb: 6.4.1 (025e99ea0bd20707e8cccc6e19fe66a0758c6dd1)
C         0.97552548461251    1.02070059467562    0.46004547488262
O         2.36913525718557    1.15837228503127    0.21596825861506
C         2.85104048397579    0.55405885755594   -0.91241098236204
C         2.16743044378939   -0.42828894618291   -1.63028239072343
C         2.84879526016004   -0.98059094704026   -2.71940925896062
C         4.12405041342549   -0.59613128911168   -3.15621424745046
C         4.75351795184911    0.45280889523923   -2.47288938653734
C         4.02201290136845    1.08091458944103   -1.45099993428569
C         4.75124175266057   -1.26794275001027   -4.36035199648720
C         5.38911765895816   -2.62263034463730   -3.95235440921709
C         4.24394965969858   -3.64676776174186   -3.88613020362981
C         4.72413246471870   -5.08088186881495   -4.08758146163119
C         5.26605778978755   -5.21494351081441   -5.49744038673192
C         5.75538159501464   -3.90898799928901   -6.08979337799596
C         6.41762231510914   -3.09873541429782   -4.99016219476178
H         0.63674602160170    1.57498081244458    1.34142976712698
H         0.56521427631684    0.00793423609993    0.52282138843956
H         0.50717760963140    1.42959498069379   -0.44132094307378
H         1.28500213803193   -0.92577110376186   -1.23747058368230
H         2.43853821262563   -1.76341831783709   -3.35489613771985
H         5.69462098462101    0.92301287409386   -2.73989086780431
H         4.50027527030665    2.00324687112301   -1.13499225591515
H         5.45606941325084   -0.55627077300519   -4.81416505616655
H         3.98193883361933   -1.48742124972441   -5.11312346178405
H         5.88677780666575   -2.42883049736680   -2.98722684200257
H         3.49676775695245   -3.41065679122443   -4.65168468673949
H         3.77045074647292   -3.62214896512065   -2.89354345095055
H         4.02085575183654   -5.91497284405393   -3.96813487821161
H         5.54062353534623   -5.18610717643191   -3.36127256732275
H         4.47385801170323   -5.51443126512952   -6.19560081503557
H         6.06904426975008   -5.96049395764732   -5.51654559618840
H         4.93608770213382   -3.34595358820619   -6.54981573063178
H         6.54197134810318   -4.14833299312718   -6.81711173534354
H         6.97571448202662   -2.23497535859644   -5.36532485333954
H         7.12400518395617   -3.76441718664758   -4.47213035122607
