35
 energy: -44.209505236279 gnorm: 0.120121490814 xtb: 6.4.1 (025e99ea0bd20707e8cccc6e19fe66a0758c6dd1)
C         0.89534728696972    1.04853853236867    0.24266851334959
O         2.29633640599669    0.81262459217357    0.29009725857072
C         2.81463604963710    0.41238942642564   -0.91067098256539
C         2.10021955581246    0.12039599998141   -2.07343413919965
C         2.77841991117688   -0.37482899301218   -3.19159751316595
C         4.17779861443887   -0.44193224733086   -3.23764027305903
C         4.90561296355142   -0.18030487359069   -2.06919038008754
C         4.19976083145259    0.27363797803717   -0.94243259424448
C         4.81955239258503   -1.04392303827856   -4.47068792651114
C         5.36417288202018   -2.48136272932695   -4.25695482799516
C         4.40342612264264   -3.49124135325925   -3.60752148599634
C         5.16400808754122   -4.81246586205980   -3.66853197469601
C         5.63346570410484   -5.32124811446387   -5.01764573400216
C         5.22642163819608   -4.31183431500881   -6.07179874028198
C         5.76969740019575   -2.95509369308997   -5.66147314649487
H         0.82761599112745    1.64903274274300    1.15571590273630
H         0.14468758787077    0.25560605114909    0.16677453265338
H         0.65707621552196    1.70160821384871   -0.60334133159952
H         1.01627739659558    0.04598431166681   -2.07470828834398
H         2.34579859959362   -0.69966397476355   -4.13621073747039
H         5.98216026704317   -0.30624728937243   -2.01226144705014
H         4.79605757374499    0.64343992262736   -0.11359648154474
H         5.75361439397592   -0.47276173934464   -4.57319784353763
H         4.17801944855009   -0.87344441237013   -5.34592228940854
H         6.17403389522928   -2.33358959706844   -3.52279989489409
H         3.46640088065769   -3.39874785357485   -4.16746032244788
H         4.27373082381615   -3.21859458221272   -2.54975088940867
H         4.51175841486984   -5.60080717626548   -3.27146559040767
H         6.05156293344263   -4.77889295771781   -3.02326156701394
H         5.34506409554218   -6.31234341196821   -5.39081594960514
H         6.72490752836885   -5.41610600578781   -4.99017776096196
H         4.13592514185294   -4.40398280374541   -6.02492824365854
H         5.57265745933061   -4.66912805208907   -7.05029932758330
H         5.49265416414700   -2.22100330483684   -6.42479068789780
H         6.85503153341544   -3.06776301274414   -5.52068459594857
