35
 energy: -44.220192969608 gnorm: 0.094733596808 xtb: 6.4.1 (025e99ea0bd20707e8cccc6e19fe66a0758c6dd1)
C         0.99512397325049    1.17411599289158    0.36547976667067
O         2.35205505027341    0.77234015734640    0.23135442620610
C         2.82325449018545    0.42251423773048   -1.00406452577604
C         2.01410251705555   -0.13735046910412   -1.99375833553721
C         2.52746483756475   -0.77779641335735   -3.12591599149198
C         3.88015792388228   -0.54412764171386   -3.40964797356462
C         4.68620836236257    0.03147229186338   -2.41848442911285
C         4.20575903405622    0.45255221493523   -1.16719125864696
C         4.74481990118764   -1.07047716527594   -4.53657440397491
C         5.44047618337732   -2.38971331663257   -4.10738389318178
C         4.43870410805128   -3.48058417751064   -3.69373390776897
C         5.04710308553091   -4.87761310670231   -3.77120816831949
C         5.31779610155577   -5.32200126066152   -5.19549824729498
C         5.63168669963897   -4.05390418890623   -5.96311935067612
C         6.37160318189091   -2.99031395429217   -5.17219573050786
H         0.33720196573212    0.34778757261155    0.07711137417601
H         0.72935405582209    2.01450857177245   -0.28344123295336
H         0.85159604310941    1.34943391830005    1.43677297011134
H         0.94690602080907   -0.08879028477115   -1.79576117577858
H         1.94830169665117   -1.41549482843294   -3.79141120569317
H         5.76091898380930    0.11384127341915   -2.54603414211720
H         4.86925062486336    0.86370174848525   -0.41218957030242
H         5.50853783944111   -0.30070959501460   -4.71932594667394
H         4.15882089049312   -1.22155645104680   -5.45333112094845
H         6.01873134790103   -2.14297948571903   -3.20105139073683
H         3.46840621815469   -3.51552497683251   -4.20108388092854
H         4.17507254964445   -3.40328302961513   -2.62857725212614
H         4.32076980257131   -5.45550352873809   -3.18549834363535
H         6.02342185269737   -4.97561300088932   -3.27881368399443
H         4.41051779198943   -5.79813168981815   -5.58900462548830
H         6.05008302557978   -6.13716921993029   -5.17953506077639
H         4.71200996562053   -3.66961466722649   -6.41741778148657
H         6.32637945530266   -4.20899457324900   -6.79879297484877
H         6.64567255960545   -2.17243829944908   -5.84618438821647
H         7.20539678699566   -3.48787100554255   -4.65480692640273
