35
 energy: -44.221362864336 gnorm: 0.107435341745 xtb: 6.4.1 (025e99ea0bd20707e8cccc6e19fe66a0758c6dd1)
C         0.87566566102131    1.10975747285492    0.36439233361200
O         2.21197074418656    0.63735320132632    0.25577234905109
C         2.68715821130191    0.37280395123909   -0.99916893272108
C         2.03087031130200   -0.07259941441192   -2.14745951556834
C         2.67499119855376   -0.59203839055060   -3.27475018961633
C         4.06860607327252   -0.47176355307920   -3.36560750442187
C         4.78837777073365    0.11260941271310   -2.31495309691798
C         4.07144692408058    0.41170222598004   -1.14430024808629
C         4.84109095516531   -1.15890051460864   -4.47274670841905
C         5.60150140616382   -2.46145226222943   -4.10714985920311
C         4.57436542515208   -3.44264256127351   -3.51815910778736
C         5.08028351861097   -4.88012989440374   -3.59244541227153
C         5.15915414536930   -5.21384964667283   -5.06952642568843
C         5.51200887177482   -4.11084361218243   -6.04661950143585
C         6.33012670301784   -3.05746560441329   -5.32181694515167
H         0.25842321112549    0.38158960579975    0.90069417896307
H         0.41618996142921    1.27979931728561   -0.61436179877625
H         0.88452315278169    2.08530494306520    0.86161908819048
H         0.95743691592882    0.09396133170846   -2.16908334800671
H         2.06293332530187   -0.98604727538900   -4.08414209062028
H         5.87159498111536    0.18048787695151   -2.30549403691452
H         4.65260421211282    0.74828104845618   -0.29091669613809
H         5.59539073440440   -0.45114172640108   -4.84599550212556
H         4.24693802082575   -1.45897177419127   -5.34659005564138
H         6.39286617081354   -2.21157997764668   -3.38051317497912
H         3.60440689750860   -3.46993897886518   -4.02662563592543
H         4.36803240350546   -3.21688646476845   -2.46151506444890
H         4.43987478727450   -5.58756037116753   -3.05023497981589
H         6.06694319453484   -4.92322743673442   -3.11296660295044
H         4.16450040417187   -5.59656999838089   -5.33199633668723
H         5.78852214505828   -6.08686840825927   -5.27624344815776
H         4.73217108504991   -3.70385414971206   -6.69937014191051
H         6.16202274420796   -4.43481637957030   -6.86973861150759
H         6.55981323054470   -2.23611250169198   -6.00805196329431
H         7.28785795749133   -3.49585716918081   -5.00396533138210
