35
 energy: -44.224496184486 gnorm: 0.096153814826 xtb: 6.4.1 (025e99ea0bd20707e8cccc6e19fe66a0758c6dd1)
C         0.66140987130020    0.88415116413266    0.15600607249383
O         2.07995024663011    0.87292380725089    0.06494275146978
C         2.76035636180998    0.46230463299900   -1.04820885664715
C         2.14068867446352    0.36065652485940   -2.29454303924023
C         2.86432492893936   -0.07586365275199   -3.40867658894733
C         4.17114974352787   -0.56103508762103   -3.26136357075560
C         4.77106582401068   -0.44130882961690   -2.00072719139167
C         4.07051430901768    0.02369735974338   -0.87517342490345
C         4.86418301547166   -1.11257827941310   -4.49024612466710
C         5.73169361717847   -2.37769925997995   -4.25483065336912
C         4.96509880093345   -3.41253344568419   -3.41453104202044
C         5.56868280935566   -4.80712081801884   -3.55111000614258
C         5.12174622163821   -5.30060065902636   -4.91349141526698
C         5.09228898479849   -4.19950267422796   -5.95395052060607
C         5.97176841843064   -3.00334373228240   -5.63775362805975
H         0.15422311963389   -0.07432023747979    0.00457778842273
H         0.20665924925788    1.57921684258298   -0.55678939245938
H         0.42108103184255    1.24859749738744    1.16021057816870
H         1.09085667459959    0.62257410888624   -2.19594641659564
H         2.33993945554944   -0.02117772672095   -4.36104334287434
H         5.78220656634812   -0.78741911693468   -1.81136360990820
H         4.43121141007233    0.05378684467679    0.14868438533141
H         5.56191652466467   -0.33435357434250   -4.83191787837321
H         4.11483913485378   -1.43672585080787   -5.22514392435240
H         6.64227394146440   -2.14216502060113   -3.67858216634604
H         3.89254979461608   -3.35123401402320   -3.62896952105505
H         5.03832161501097   -3.11178318533550   -2.35896320015613
H         5.10736053701533   -5.37166776532628   -2.73071870773457
H         6.65320653065231   -4.78997486686146   -3.38149586306803
H         4.15373910952856   -5.79673068678391   -4.76679917513088
H         5.75668403268452   -6.07503521770845   -5.35857888465194
H         4.07034454550230   -3.80539157509098   -5.96724719088878
H         5.37701959254154   -4.52880997135623   -6.96166409286932
H         5.87432188238479   -2.18150284245130   -6.35425697598668
H         6.99314710521150   -3.40996200500289   -5.68149296457072
