35
 energy: -44.209992129883 gnorm: 0.107571315192 xtb: 6.4.1 (025e99ea0bd20707e8cccc6e19fe66a0758c6dd1)
C         1.59383343719026    1.08869670256285    0.98816270373195
O         2.28998057857288    1.59245874740259   -0.14421458619031
C         2.76854812006292    0.76921683282837   -1.12600525395848
C         2.05589582133149   -0.28975391312118   -1.69025420491085
C         2.57173754105543   -0.88308710459918   -2.84669524327863
C         3.87642749888016   -0.58953889419967   -3.26681079438409
C         4.62608555678706    0.41898138659507   -2.64686130269760
C         4.06435018835683    1.07123876658166   -1.53650635412743
C         4.36509870079547   -1.38428953082215   -4.46021734659753
C         4.80239047864279   -2.79281927292071   -3.97715830532853
C         3.87083009981140   -3.93565859197612   -4.41392641409399
C         4.66256154726303   -5.23750118003139   -4.49272104212766
C         5.83380065886535   -5.20573381904518   -5.45529443918020
C         6.49951419159733   -3.86308340797368   -5.67880062213784
C         6.25105248260894   -3.06977523390272   -4.40868658103364
H         1.97069350568902    0.20642343056386    1.51580530189286
H         0.53389324440063    0.87006786371127    0.82470012329765
H         1.60591774508236    1.95999284869636    1.65126357367389
H         1.05393607208913   -0.59881277448888   -1.40559898675324
H         2.01819282203729   -1.62430394977376   -3.42041898263799
H         5.47792067414439    0.76930899848724   -3.22105985633185
H         4.50438788422338    1.92350212580684   -1.02728482746064
H         5.20203382753811   -0.91546689654100   -4.99775827260587
H         3.55211315806900   -1.50470419199444   -5.18906402739126
H         4.76227929407216   -2.98507236906800   -2.89174361081349
H         3.47076707548806   -3.81081800974932   -5.42608611226315
H         3.04991997501102   -4.07348878294786   -3.69479835188751
H         4.01958131572258   -6.09231445506380   -4.73857478246820
H         5.04446622938841   -5.55517224230870   -3.51369675664562
H         5.53753486204837   -5.58411977587522   -6.44208318607921
H         6.63446939618150   -5.91255002600095   -5.20965611479603
H         6.11075269567903   -3.25091037223476   -6.49976314776599
H         7.59259184601380   -3.89968341299718   -5.77283858339752
H         6.62675544678642   -2.04841510174051   -4.52686477317107
H         6.79459052894386   -3.43766366924944   -3.52568575470160
