35
 energy: -44.230411074583 gnorm: 0.090374888925 xtb: 6.4.1 (025e99ea0bd20707e8cccc6e19fe66a0758c6dd1)
C         0.72391466784202    1.41076412892071    0.05727448517481
O         2.14053951882636    1.29385525050761    0.07075517548144
C         2.71005654711535    0.56607296092339   -0.93753564114268
C         2.11851043519676    0.33032128876139   -2.17937443782369
C         2.81542614075104   -0.19951333776169   -3.26982233297538
C         4.12938344652690   -0.66411037382020   -3.11965803318944
C         4.74299542103375   -0.32707107601569   -1.90585301865041
C         4.06863276655430    0.27945081449819   -0.83289418372734
C         4.90286422946904   -1.27147506698744   -4.27182248773305
C         5.53084500698805   -2.66123302406156   -3.98417838906632
C         4.38412120328342   -3.64396857485714   -3.69450928988907
C         4.93050981832538   -5.05063958446955   -3.91940383820810
C         5.22731026064657   -5.39321944129461   -5.36643746184121
C         5.72256142849914   -4.15234778744420   -6.08114262292250
C         6.40571813817469   -3.18085032736836   -5.13575891777664
H         0.26324870629225    0.50246999679491   -0.34475163116880
H         0.43710077606052    2.26571577866123   -0.56303775165344
H         0.50340529666275    1.44641754809498    1.12924007380244
H         1.09614286991172    0.59828545290279   -2.43122578395670
H         2.33601042391741   -0.29134234455095   -4.24280799856914
H         5.77261526397793   -0.58483265934670   -1.67892034237721
H         4.56058230356682    0.43547202456954    0.12258246351536
H         5.69370668086780   -0.52922104470165   -4.45301992556939
H         4.29828728401759   -1.26070145580223   -5.18890117452349
H         6.17589535160715   -2.61322058888386   -3.09070198878745
H         3.46468448962433   -3.49677701534725   -4.27163460014588
H         4.15324343452898   -3.58060131329631   -2.62086325303464
H         4.12518278929198   -5.71863376363515   -3.58803466435677
H         5.82810937892129   -5.22239561773011   -3.31107042908021
H         4.34341789643641   -5.79716108989035   -5.87660098358796
H         6.05267455725964   -6.10723942152719   -5.26670276276816
H         4.85899285053804   -3.61338210820466   -6.48566221786185
H         6.33425763761194   -4.50859770661727   -6.92013916573305
H         6.90273972123348   -2.34732402927795   -5.64221599740137
H         7.24654052468082   -3.78247857176608   -4.75955799131336
