35
 energy: -44.225955368489 gnorm: 0.086046652363 xtb: 6.4.1 (025e99ea0bd20707e8cccc6e19fe66a0758c6dd1)
C         1.36199328078164    1.78437080842534    0.42047022772392
O         2.44557530035748    0.86861735253093    0.50947050919145
C         2.88419574366523    0.39695266697247   -0.69709975293735
C         2.04550208172668    0.24701500893305   -1.80244185538647
C         2.52440026528063   -0.22354096183016   -3.02911487836298
C         3.83682225957883   -0.67277357331388   -3.23066488754686
C         4.62851856332208   -0.63448747447049   -2.07516101669182
C         4.18425252907356   -0.07195588763783   -0.86683134190843
C         4.32318155780313   -1.24317606394547   -4.54700194926009
C         5.14789099226781   -2.55222660754158   -4.42548091514791
C         4.15531897484292   -3.70625872896454   -4.20716101174396
C         4.69946483269731   -5.12375112443679   -4.05728756672122
C         6.08486885416945   -5.14240555140001   -4.67345759901850
C         6.12653714283454   -4.32243349890811   -5.94693679585171
C         5.91744225371950   -2.83537105054145   -5.72515896463341
H         1.22167008918611    2.36372506059275    1.33888975207010
H         0.44445392384523    1.20709410459688    0.26925861852284
H         1.45893703414844    2.48872697394317   -0.41229029234475
H         0.98632725547047    0.47672362284737   -1.72594283071901
H         1.77022817716774   -0.04147074682246   -3.79269077158071
H         5.65625512506886   -0.98081241768036   -2.11844178044261
H         4.90088943352252   -0.03275494354867   -0.05185432079199
H         4.96914502306060   -0.44597797141881   -4.94249126884975
H         3.49849832817290   -1.36771513565105   -5.26187980106167
H         5.91525192200373   -2.48452269720744   -3.63600725489114
H         3.35496190468780   -3.76746640755411   -4.95267094330986
H         3.62713588477099   -3.44291352614376   -3.27887887845225
H         4.13125563904321   -5.86089947553077   -4.63894383375912
H         4.66262516383630   -5.53294707207792   -3.03922264973923
H         6.47997137023607   -6.14926090988351   -4.86010616663216
H         6.84823922570277   -4.63559811190067   -4.07228402112158
H         5.46987521436176   -4.72340658224743   -6.72660756542819
H         7.12834980486244   -4.40468031176614   -6.38808112898236
H         5.28529253605905   -2.40872329808396   -6.51043202133708
H         6.89607972258848   -2.33473011970002   -5.77091220791478
