35
 energy: -44.218319896559 gnorm: 0.092630190215 xtb: 6.4.1 (025e99ea0bd20707e8cccc6e19fe66a0758c6dd1)
C         1.71364463908709    0.64158397351005    0.95691125790476
O         2.51331925635460    1.36793703181347    0.03300264734261
C         2.78645405106910    0.82015448433917   -1.19010762751041
C         2.08127937917506   -0.18758546633007   -1.84954536503513
C         2.60540905199072   -0.80336376109439   -2.99042136350300
C         3.83629601200045   -0.41011323983459   -3.53370294286349
C         4.46087597893176    0.71754070873374   -2.98439954886200
C         3.94591744959340    1.28372151208171   -1.80620963204804
C         4.51632044157745   -1.32509063909819   -4.53121509187260
C         4.84805500562576   -2.70189497517245   -3.89648035238166
C         3.90203948058075   -3.72370461602014   -4.54887021137558
C         4.41231284953273   -5.14965560770734   -4.36413724860399
C         5.69911054519955   -5.32065894068246   -5.14788932780352
C         6.44302945934872   -4.01243818422610   -5.32390850969019
C         6.31102095583695   -3.12690356160769   -4.09807697521500
H         2.16653684656102    0.65719917532667    1.95364651364139
H         1.73702971688068   -0.36422977858586    0.52588499607989
H         0.67376365978921    0.97133639165236    1.05133932042808
H         1.06314870222116   -0.54922064219209   -1.73509336633124
H         1.97266322942649   -1.55757412075028   -3.45493462883414
H         5.42910820058731    0.99130754632025   -3.39138184472963
H         4.61378574854749    2.00714894339785   -1.34806415262726
H         5.48204688305193   -0.87858842684166   -4.80908835003545
H         3.96767871223260   -1.41196324740443   -5.47890073505910
H         4.66941421002059   -2.51983237426657   -2.82333735017127
H         3.87044820678963   -3.58144959750042   -5.63462725355787
H         2.88760618687109   -3.64306202301456   -4.13118895366381
H         3.67959974972057   -5.89224244492823   -4.70512064920215
H         4.55597113507623   -5.36684772308296   -3.29762680521290
H         5.30297957839121   -5.69476152637496   -6.10068988391754
H         6.33406872535229   -6.09937669408025   -4.71036843131769
H         6.12942695637309   -3.45388615870240   -6.21247133893207
H         7.50731165393590   -4.19394621534674   -5.52230131088658
H         6.86557485968775   -2.20561083539981   -4.30297939880122
H         6.60314870513660   -3.69626738833485   -3.20311765645007
