35
 energy: -44.220384609972 gnorm: 0.100131481873 xtb: 6.4.1 (025e99ea0bd20707e8cccc6e19fe66a0758c6dd1)
C         0.92039958058436    1.39684603008910    0.43683710499608
O         2.32107290156682    1.27341435659181    0.22814056072465
C         2.78447141683706    0.56899859528377   -0.84876580677652
C         2.04652508056049    0.04965501011053   -1.91337216374685
C         2.63578214499256   -0.61650067969593   -2.99249475321513
C         4.03105759691963   -0.63772763465314   -3.12530806948386
C         4.77211427165452   -0.25592156961574   -1.99903239467731
C         4.16145299556742    0.36828198693217   -0.89842475384356
C         4.59461878550106   -1.11487823705428   -4.44794688128571
C         5.39097736053006   -2.44173172179719   -4.33047762402870
C         4.49635484601874   -3.57914560905463   -3.81029203908365
C         5.12654015895469   -4.96850405839976   -3.83006512956800
C         5.70490401486204   -5.46513993638211   -5.14086863210621
C         5.62827811034188   -4.34649042083455   -6.15998166735885
C         5.98290431627144   -2.96142829110499   -5.64997783759844
H         0.86160584788250    1.68529130419178    1.49143607091392
H         0.38250952672358    0.46459724160962    0.23789418049541
H         0.53738709380086    2.07209618642426   -0.33539629922635
H         0.96253902207882    0.06629360444607   -1.98525204430702
H         2.13569402797751   -0.95291265117671   -3.89897805266110
H         5.80695900716999   -0.57183186369438   -1.91327951979239
H         4.71430401222938    0.79975157969639   -0.06927920975153
H         5.28297454742607   -0.40220455624277   -4.92488282211319
H         3.75133687523346   -1.35594282821339   -5.10932888781926
H         6.18726340381556   -2.41915291718587   -3.56751369640567
H         3.57758426517494   -3.54046259714466   -4.40566343278597
H         4.23951587712176   -3.28355239860596   -2.78233573371335
H         4.31982662792145   -5.59210146269967   -3.42397039637501
H         5.91856597244810   -4.90077530152561   -3.07285804478250
H         5.02939745462803   -6.27471668904567   -5.44579117045282
H         6.73387263064743   -5.82684270140675   -5.03413316074088
H         4.62234083615843   -4.24395997381477   -6.58122803547295
H         6.28233964536950   -4.54407784801430   -7.01914647915398
H         5.71245220659242   -2.30792055037484   -6.48548882434975
H         7.07603545496059   -2.85763846026069   -5.58099991831919
