35
 energy: -44.224227222768 gnorm: 0.095959900629 xtb: 6.4.1 (025e99ea0bd20707e8cccc6e19fe66a0758c6dd1)
C         2.69305175755854    1.16801898009307    1.06550131670368
O         1.95195849902713    0.98736058564849   -0.13400637828254
C         2.59510678731509    0.34807688774611   -1.15789295381777
C         1.75318089315886    0.28226763670868   -2.26897315078053
C         2.28015865206200   -0.25151152368826   -3.44917106357605
C         3.62382399548037   -0.63771823908293   -3.55061737820892
C         4.40080031266876   -0.69636428823623   -2.38601177641237
C         3.85186723633992   -0.25124977021801   -1.17175480160935
C         4.21667072331566   -1.07680304243762   -4.87363840420148
C         4.91987578336202   -2.44161207884327   -4.64708791007352
C         3.93202612542872   -3.47669404730825   -4.08369531624701
C         4.67634599187091   -4.77815089073205   -3.80078290956286
C         6.18240546141530   -4.67214833123843   -3.94187189574669
C         6.52911038609304   -4.21450925126709   -5.34408508152403
C         5.60587343697079   -3.11825693357402   -5.84421021964188
H         1.96997332933440    1.69234060993167    1.69881069976083
H         3.57537837032223    1.80867237174737    0.97034470066788
H         2.98718393909860    0.23240112009798    1.55244201979038
H         0.69949739174060    0.54171028245604   -2.21502939638640
H         1.64717132574780   -0.20959838030772   -4.33378591956610
H         5.40110672115876   -1.11741715790130   -2.37343934844581
H         4.48449409915405   -0.37693800513415   -0.29809680244792
H         5.05112977107327   -0.43783803397808   -5.19706867713830
H         3.41870967753598   -1.16045083409301   -5.62392094470684
H         5.65344209810781   -2.30905322801047   -3.83406648419079
H         3.12356912121353   -3.77233456972577   -4.76126214409273
H         3.50400505184489   -2.98794659366065   -3.19602439973420
H         4.25926977724701   -5.57967640169955   -4.42382196406056
H         4.44589797690095   -5.15477642051825   -2.79564532381977
H         6.65355247666689   -5.66321512728285   -3.91932233377563
H         6.70234178649947   -3.99550778088302   -3.25425168931054
H         6.43487379784017   -5.08160870652212   -6.00675301997893
H         7.59831608746855   -3.98071632713218   -5.25957771746890
H         4.86741270929397   -3.49183556636085   -6.56073661783546
H         6.18455807552537   -2.35969852705963   -6.39209634199510
