35
 energy: -44.217861232870 gnorm: 0.103838808162 xtb: 6.4.1 (025e99ea0bd20707e8cccc6e19fe66a0758c6dd1)
C         0.63396404263526    0.73765261151018    0.16277030830264
O         2.03211048833359    0.87677340417346   -0.05288520351403
C         2.72290890481662    0.37628645046514   -1.12198643923142
C         2.08017811806363    0.02096092191110   -2.30870889169161
C         2.91426324185020   -0.30377404727516   -3.38311201830313
C         4.29095207117497   -0.51433410067200   -3.22412814120133
C         4.87139680357891   -0.19083756348464   -1.99048651493724
C         4.09358296784069    0.25520871089832   -0.90885680805728
C         5.01311519295657   -1.14398052528235   -4.39744529155904
C         5.86917179438686   -2.42070260310935   -4.18373051609599
C         5.08515399840960   -3.33505182240632   -3.22773133203560
C         5.48606969735447   -4.75432997995668   -3.61857340082777
C         4.88959643206893   -5.16758322544303   -4.95003844715611
C         4.83238102280917   -4.04041818590574   -5.96101076227110
C         5.97746084800922   -3.13789099935593   -5.53852096124098
H         0.13124016189541   -0.13301501840074   -0.27086886359171
H         0.12169751838550    1.64014158842405   -0.18520735770040
H         0.55348804540492    0.61695591607272    1.24810974471457
H         1.02897887416645    0.22534333286558   -2.49222270095039
H         2.42434380169140   -0.33195278144604   -4.35478995748750
H         5.94699109435539   -0.18341051004605   -1.84523412094068
H         4.58512002289071    0.62343475140210   -0.01326008153356
H         5.69384519188116   -0.39945261253739   -4.83504120204243
H         4.27271111015893   -1.37093844673032   -5.17651818202519
H         6.83697435255627   -2.08977118934801   -3.77076825430905
H         4.04169430963720   -3.12444782807462   -3.48646031960593
H         5.30425306570776   -3.16359599896184   -2.16347841745173
H         5.11698755844087   -5.44089892458314   -2.84593193406438
H         6.58095980582915   -4.83443168359956   -3.61122418244828
H         3.87995264326137   -5.58982079040181   -4.86615611682167
H         5.45343938102860   -5.97852949429050   -5.42484898110968
H         3.83445452668324   -3.59792977562724   -5.87036027514250
H         4.96652134426938   -4.43835181478926   -6.97523788614601
H         6.14512898693986   -2.32482729996326   -6.25204050454355
H         6.91878728918732   -3.65976907679822   -5.76658624089034
