35
 energy: -44.223108892788 gnorm: 0.097795463715 xtb: 6.4.1 (025e99ea0bd20707e8cccc6e19fe66a0758c6dd1)
C         0.97048837271727    0.80078261512216    0.52398389304352
O         2.18178054354085    1.35827730750476    0.03139245619299
C         2.70123003154098    0.79706631934894   -1.10257470640003
C         2.01860996130273   -0.03230004823852   -1.99355759435086
C         2.61619561763860   -0.68838376173466   -3.07426957325736
C         4.00746621575027   -0.61676852429801   -3.22957859943844
C         4.71426752942524    0.27988555081221   -2.41724791937998
C         4.07894774369748    0.84471696379175   -1.29867351548471
C         4.82579682125607   -1.23837143036091   -4.34249915519245
C         5.51308923791446   -2.58727887832640   -4.00102588429964
C         4.42722221202598   -3.63034747682515   -3.68869027692916
C         4.91938161615577   -5.05999117152525   -3.89299257887104
C         5.21561402671766   -5.34744583442177   -5.35209296734325
C         5.76630293500854   -4.08810588411193   -5.98977961672075
C         6.46662356260910   -3.07409300673888   -5.10344465756760
H         0.85821549283624   -0.26280439708342    0.28943363466262
H         0.15480785002550    1.37722959207744    0.07636131740519
H         1.10368019569725    1.02611169951957    1.58723010820686
H         0.96195899085843   -0.23738206279907   -1.84557307265518
H         2.00769823969113   -1.27767775210492   -3.75796294935622
H         5.78555111640964    0.40201968430081   -2.54171167477069
H         4.67921082088151    1.47663775925174   -0.65086727118880
H         5.64414931075011   -0.58134570493680   -4.67086133015896
H         4.12130777090117   -1.40854306948106   -5.16796839367286
H         6.24324431484312   -2.47506612068675   -3.18189397946534
H         3.60512190208487   -3.41230920001789   -4.37913451133626
H         4.06851998821343   -3.48202622269813   -2.65943361032653
H         4.15159940709576   -5.80707975682299   -3.65436630033976
H         5.71243892467042   -5.21556173652392   -3.14994981642807
H         4.27705403168226   -5.68255831395065   -5.81199094243391
H         5.89666780615017   -6.20552815893124   -5.38138865829780
H         4.87191437773921   -3.55422966641950   -6.32877237248850
H         6.35827511763941   -4.30313303458811   -6.88885342674105
H         6.97235491720014   -2.30040719316212   -5.68990981110012
H         7.32341118483016   -3.49197873498982   -4.55412466207564
