35
 energy: -44.218904558304 gnorm: 0.101285167650 xtb: 6.4.1 (025e99ea0bd20707e8cccc6e19fe66a0758c6dd1)
C         0.71802849475929    0.92796820517797    0.14560577771422
O         2.11061657990826    0.65941130038494    0.24178789393166
C         2.65884612545081    0.40570400771942   -0.98529973438807
C         2.10143045617105    0.33012784689116   -2.26250185539006
C         2.83415455886615   -0.04861461107700   -3.39173273173295
C         4.14777902699862   -0.51967757241581   -3.25992245660733
C         4.79345616928158   -0.32019000430249   -2.03242766118511
C         4.02083863745171    0.11912096638282   -0.94433645986989
C         4.85981048434988   -1.04820217047812   -4.48805935964093
C         5.59039282078592   -2.40861164651626   -4.33294116055268
C         4.91687921775056   -3.39353447009874   -3.36291060492838
C         5.54219362690722   -4.76303309320489   -3.61049253802993
C         5.11180723748075   -5.32600168691133   -4.95108631923934
C         5.09380072040404   -4.21978104963925   -5.98635986532458
C         6.07603564712691   -3.12854522297969   -5.60076982996590
H         0.11624373252624    0.15747577008449   -0.34737785668761
H         0.53863488869638    1.85644066169149   -0.40552817553911
H         0.29256453859264    1.01017777951126    1.15120399683568
H         1.06545321786109    0.64983782788141   -2.33325506849328
H         2.19306054919322   -0.09236655277332   -4.27040066260270
H         5.83544540757597   -0.57834042032954   -1.87219884484802
H         4.43738388202259    0.40356026757707    0.01736876074269
H         5.68456213463357   -0.36068377987943   -4.72535347592901
H         4.18838789273882   -1.21487258535680   -5.34133266761295
H         6.51961141873057   -2.16328553910801   -3.79158811684661
H         3.83473534157322   -3.40301428273270   -3.53313872127889
H         5.14227308447238   -3.04286929176385   -2.34493845322166
H         5.40299978932935   -5.45948139800661   -2.77373796871103
H         6.63784700344219   -4.71014770308064   -3.65523017525640
H         4.11429281303859   -5.77718433211759   -4.87298011109676
H         5.78083936704358   -6.14452675460501   -5.23989505679164
H         4.08729730429857   -3.78757622450559   -5.98181483751496
H         5.26731562976885   -4.63628937689015   -6.98706703821943
H         6.32501209112395   -2.36507852707142   -6.34469499473426
H         6.94461312719705   -3.70480398752072   -5.24868324207316
