35
 energy: -44.219676608293 gnorm: 0.085409470829 xtb: 6.4.1 (025e99ea0bd20707e8cccc6e19fe66a0758c6dd1)
C         1.00363431329360    0.98286767003714    0.57016842827524
O         2.27313174012552    1.37907758801403    0.06810332425365
C         2.77126144299952    0.60894856528332   -0.94650752231238
C         2.02932224414247   -0.17405030869927   -1.83200638516528
C         2.59629171053051   -0.70954926668872   -2.99273000819233
C         3.98776843947033   -0.72991827417319   -3.16084046107990
C         4.69200698055582    0.07458077619187   -2.25515447315798
C         4.12390701444555    0.81490782559352   -1.20489129680394
C         4.81222405637552   -1.22667144367987   -4.33052269794104
C         5.41608091897332   -2.63928134603497   -4.11048561019047
C         4.22861722129809   -3.60288878899046   -3.94910563205563
C         4.87823406575514   -4.98291571296433   -3.91215902151992
C         5.41789737947465   -5.32921542875840   -5.28627611430578
C         5.75835423959308   -4.08967800278733   -6.08844551382361
C         6.42770340407922   -3.07103286479642   -5.18368336908035
H         1.16337004930200   -0.05138203748913    0.89211313877601
H         0.23022666061330    1.05185591528907   -0.20124133792996
H         0.66907274350078    1.62757516916488    1.38957465582458
H         0.94467848340224   -0.12583358886737   -1.79086774041071
H         1.93316846986187   -1.04243985329602   -3.78923771189216
H         5.75840018997349    0.21553089309597   -2.40005127946835
H         4.67599504328808    1.53783975986624   -0.61171273393339
H         5.64325202708541   -0.52209871095436   -4.47943575359417
H         4.29211000589232   -1.28534858568096   -5.29628717594120
H         6.03330984069571   -2.63250720330111   -3.19633147158285
H         3.52329955248539   -3.44495242168213   -4.77232245747744
H         3.70913827368879   -3.20098572720229   -3.06669341592801
H         4.19233295258229   -5.79439005333067   -3.63716368666059
H         5.74596925547419   -4.87632702877060   -3.24813406958395
H         4.63699283454031   -5.91403080161328   -5.78914832271812
H         6.26343695214620   -6.02549100689597   -5.25076675348033
H         4.86057290409859   -3.63531410633954   -6.52135765181604
H         6.28410241412767   -4.27593677946680   -7.03390729623093
H         6.84423369166887   -2.28003782102789   -5.81544651916134
H         7.32218842632587   -3.52360746577742   -4.73031956016667
