35
 energy: -44.212227816071 gnorm: 0.099698848478 xtb: 6.4.1 (025e99ea0bd20707e8cccc6e19fe66a0758c6dd1)
C         0.61613660535468    0.83387663293724   -0.02190606162870
O         1.97748618062241    0.43138174233281    0.05158245519451
C         2.77586717422162    0.10235629844592   -1.00907635222884
C         2.28988859136785    0.02155472657298   -2.31481949656866
C         3.21970808308093   -0.13887821439136   -3.34689983535524
C         4.58582443458141   -0.37952290833540   -3.14515799292699
C         5.03882145079021   -0.27660353227474   -1.82317499412199
C         4.12533800917983   -0.13856014390797   -0.76470134476505
C         5.36605524644934   -0.85189768244968   -4.35459971340569
C         5.66011569937098   -2.36364102420180   -4.16306200640191
C         4.44545012441684   -3.13139302602160   -3.61552457441298
C         4.79466976653797   -4.61616668488973   -3.57899745899104
C         4.83432900875042   -5.19296479566329   -4.98081372833806
C         5.25882072000886   -4.17112836018788   -6.01594499240694
C         6.13840191789050   -3.07781131271420   -5.43693246587350
H        -0.04465866549665   -0.02490444628896   -0.17900800110152
H         0.41636984913807    1.44993826323964   -0.90426262693909
H         0.42240520871443    1.31040804277098    0.94473333812233
H         1.24820713232976    0.16978695952959   -2.58573694545329
H         2.78570618850999   -0.31315379802125   -4.32987668364416
H         6.06722486319977   -0.40265052296690   -1.49982523885983
H         4.53155420056515    0.16722560753918    0.19486942569768
H         6.27216527043653   -0.29092358022483   -4.62566796114641
H         4.64749766711701   -0.62493788034124   -5.15386621035108
H         6.43180143128315   -2.51315670995401   -3.38921356406951
H         3.51787407236082   -2.91721480953060   -4.15758841724636
H         4.20587381988379   -2.81929057943669   -2.58828019094029
H         3.97414493078236   -5.15511803574325   -3.08823905418314
H         5.74213341095542   -4.56808220928640   -3.02649843704308
H         3.79669482499866   -5.40747705606970   -5.26717220555958
H         5.36651854234489   -6.14305548088923   -5.10369478441349
H         4.32125484092194   -3.69664990354637   -6.32531727935700
H         5.71583794134971   -4.58177374274123   -6.92561915685645
H         6.39728379922730   -2.48685193421245   -6.32126413532322
H         7.07142908385486   -3.64056727180388   -5.28451197420872
