35
 energy: -44.222348620738 gnorm: 0.099355498894 xtb: 6.4.1 (025e99ea0bd20707e8cccc6e19fe66a0758c6dd1)
C         1.10470550701127    0.62221163439111    0.56057082350629
O         2.40005222422348    1.01301305113131    0.12465051861772
C         2.95115690019003    0.37390997250349   -0.95168491423482
C         2.17310051055584    0.18725314598115   -2.09512565237336
C         2.71683135914988   -0.23685618145767   -3.31167029859216
C         4.10467505055163   -0.43212792340368   -3.33701477832786
C         4.90757550850116   -0.18911139087487   -2.21463713668243
C         4.34007018251062    0.34773819440835   -1.04690229030834
C         4.85890848974555   -1.01731478113662   -4.51316765117574
C         5.22179627835800   -2.51082779271245   -4.29809205329079
C         3.93267715354620   -3.34351603733799   -4.20085521402533
C         4.31781459443271   -4.77898003766906   -3.85595861926947
C         5.51983500235985   -5.24081633263742   -4.65671572645132
C         5.87733512017171   -4.39191895354944   -5.85979783307411
C         6.24045444148464   -3.01576055645550   -5.33197856046805
H         1.02632886748017    0.85743246571137    1.62704380427412
H         0.92506722055553   -0.45291102826510    0.46140859939042
H         0.30584298522241    1.18101235458422    0.06200669193727
H         1.12274217957050    0.46389441498143   -2.12132312032499
H         2.17397830709199   -0.32664699016576   -4.25093664370392
H         5.96043567668760   -0.04166353650001   -2.43327174019451
H         4.93625028720998    0.53186191008030   -0.15810517249820
H         5.79245458533835   -0.43624163361381   -4.52030985280328
H         4.32133793341735   -0.91709980483935   -5.46586777116396
H         5.69946273898763   -2.56997551437444   -3.30560451068191
H         3.39516157496686   -3.26243329624858   -5.15196269625659
H         3.24578362971035   -2.93503422200457   -3.44497449643075
H         3.46217940538380   -5.43847901378642   -4.04966690407012
H         4.54145953659347   -4.64199342047029   -2.78990409431402
H         5.25166276384910   -6.23627384568484   -5.03334469099335
H         6.36814858241411   -5.28490858960838   -3.96431576441661
H         4.98471129160050   -4.27462434635035   -6.48376535756012
H         6.75021407276717   -4.78632670133373   -6.39601264094314
H         6.43749698400305   -2.28162397003560   -6.11970505340088
H         7.14623926373766   -3.22618350894159   -4.74398025529978
