35
 energy: -44.221979853426 gnorm: 0.090832387793 xtb: 6.4.1 (025e99ea0bd20707e8cccc6e19fe66a0758c6dd1)
C         1.08358824970931    1.48109558746708    0.57591439163438
O         2.38501035750087    1.02480302906332    0.23127984450021
C         2.80678664025102    0.45981295999986   -0.94070909471974
C         2.04337706261902   -0.16781731857495   -1.92607974241103
C         2.70799410295425   -0.75799605354054   -3.00564730406575
C         4.10054712058784   -0.64061685065181   -3.11474255144880
C         4.87747325593057    0.01044482967866   -2.14730146352762
C         4.19115533213826    0.56015339756270   -1.05155392092944
C         4.78779816182825   -1.19964061556989   -4.34349224249666
C         5.33477268968745   -2.64516807397332   -4.20279602733956
C         4.10728668601162   -3.55647106201965   -4.03709202183938
C         4.46985664510223   -5.03527642823668   -4.13465800324981
C         5.59764477160182   -5.36634993426062   -5.09269873565076
C         5.83253075395409   -4.24044196520241   -6.07910609149703
C         6.27501488315802   -2.97119963091733   -5.37377464000074
H         1.25844294842927    2.03705889953622    1.50282700205603
H         0.43341927747740    0.61181666935737    0.71600818399433
H         0.62617159402193    2.09419728055627   -0.20759188327425
H         0.96174294025882   -0.26929301132998   -1.91059923823665
H         2.12897442531181   -1.15688451630308   -3.83666915896345
H         5.90931858518816    0.30305813978150   -2.31382225397929
H         4.67799027842204    1.18036677119749   -0.30481453758188
H         5.62851733463310   -0.51642711254345   -4.53221404210212
H         4.03024235456789   -1.14219995353137   -5.13688524261009
H         5.96696377552448   -2.69159283020341   -3.30009208941069
H         3.37157328381288   -3.35992440314118   -4.82461856361448
H         3.54720206264642   -3.28819625431554   -3.12914400027123
H         3.53576104037155   -5.54044515093897   -4.41186431550190
H         4.68495464546712   -5.53723661795501   -3.18228020990519
H         5.36670855939645   -6.31195130443363   -5.59985541881039
H         6.56996006585630   -5.46167686030560   -4.59619746608835
H         4.95936406878851   -4.07640893973924   -6.71984309140184
H         6.79290663219473   -4.44259486092724   -6.57085179682073
H         6.32029316010870   -2.16187579500462   -6.10946487956044
H         7.29008248960077   -3.06391427812030   -4.95963973430582
