35
 energy: -44.224483302055 gnorm: 0.095477479203 xtb: 6.4.1 (025e99ea0bd20707e8cccc6e19fe66a0758c6dd1)
C         0.78469405609638    0.96399476789652    0.15918481419014
O         2.20426494634044    0.89004942187816    0.15409106102152
C         2.77340585950293    0.48301620730430   -1.02109812988199
C         2.04911981566396    0.02204890929164   -2.12136541261866
C         2.68546622503698   -0.66250701085303   -3.16152850391649
C         4.08419560865014   -0.67187021226866   -3.25291741010914
C         4.76669644654293    0.02733967370387   -2.24855897452335
C         4.16331252882780    0.53565956450194   -1.08605600213352
C         4.88420909685892   -1.23765249631553   -4.40812999395941
C         5.80228845017671   -2.45329733657480   -4.11171125153549
C         5.10782082069031   -3.48037940096621   -3.20205749214333
C         5.20552077855992   -4.91577777764990   -3.70992323583643
C         4.77547733765419   -5.14834754942257   -5.14530879519794
C         5.18742016539599   -4.00677806850092   -6.05248125483102
C         6.21297392148847   -3.05410085372998   -5.46519395521574
H         0.46821169024683    1.55761877151173    1.02306316779879
H         0.33508691577516   -0.03330128584800    0.19448070228197
H         0.33035567970797    1.54427274897734   -0.65066694345569
H         0.96607498582105   -0.06392439721410   -2.11178381704995
H         2.11356536587743   -1.18163620322176   -3.92860566655550
H         5.84055423130029    0.10344352780191   -2.38674053376071
H         4.78417057477846    1.06415968170294   -0.36875865688293
H         5.52336121766885   -0.47880908333557   -4.88230986781505
H         4.20567092990470   -1.52709913506550   -5.22205214021733
H         6.66702151635801   -2.03425186155589   -3.57010915721421
H         4.02177219370580   -3.35331214146857   -3.13531067291486
H         5.41684166571448   -3.40675432765440   -2.14890924688414
H         4.54872262439426   -5.59447974986983   -3.15085866784216
H         6.22584505456929   -5.30408969459614   -3.59413521067680
H         3.69395649452544   -5.33394775479086   -5.16911244659188
H         5.32231765848623   -6.06432528803084   -5.39620361213951
H         4.27234814350664   -3.51256687229969   -6.39638426776225
H         5.59522590395580   -4.29222909614702   -7.03085421366361
H         6.48231075041385   -2.22411614342905   -6.12616170835253
H         7.16909039690368   -3.53350383431839   -5.20735672699792
