35
 energy: -44.224465034321 gnorm: 0.085236162277 xtb: 6.4.1 (025e99ea0bd20707e8cccc6e19fe66a0758c6dd1)
C         2.55443939801326    2.12690767614495    0.83954387542808
O         1.72761207461972    1.52878297737110   -0.15004129481201
C         2.38640689267811    0.79364649035131   -1.09673597848525
C         1.76476725644065   -0.35202234199991   -1.59541058920566
C         2.34853761711404   -1.23003898087970   -2.51399199953942
C         3.58958160923956   -0.92473285923252   -3.08973631354063
C         4.25607370838048    0.16095666922526   -2.50620886066579
C         3.69669871276064    0.99423147597435   -1.52303686876444
C         4.20420328071597   -1.71818857908347   -4.22433560007752
C         5.15689072744019   -2.90449494866384   -3.91841079236437
C         4.35290687024373   -4.21441287209891   -3.86964785726428
C         4.31427759920760   -4.77591929487309   -5.28776623151103
C         5.71843117378132   -5.18555815818320   -5.68764935262677
C         6.85181208845736   -4.30168380872338   -5.20801043921542
C         6.18018594536371   -2.94800069537231   -5.06406213874925
H         1.89656905778702    2.44354961301667    1.65549783125904
H         3.07739932072225    3.00320895852500    0.44381570431610
H         3.29044214167926    1.38093133277351    1.15707344510973
H         0.77416556401941   -0.56208570301238   -1.20164541298356
H         1.81440092714194   -2.17173758495279   -2.62745937419405
H         5.17173974455318    0.56433957778852   -2.92679706793488
H         4.25297634895098    1.73743141925567   -0.95956404483544
H         4.75654697186192   -0.97622087021334   -4.81898313797688
H         3.39245836619039   -2.08880755804989   -4.86494034206807
H         5.70859829541205   -2.71130805360863   -2.98300029418037
H         3.32959871827275   -4.13296030434182   -3.48714458344816
H         4.85765762684987   -4.99933224683979   -3.28726996015210
H         3.82153256149749   -4.11102933246294   -6.00866639235015
H         3.71158623544307   -5.69014399213624   -5.20895654575880
H         5.82328121361917   -5.23962154814204   -6.77888031157619
H         5.93457694149519   -6.23530679379806   -5.45894304758344
H         7.70332651940632   -4.25634521249109   -5.89557016853758
H         7.23228158046142   -4.62753260042787   -4.23124691183081
H         5.73811930554260   -2.71018788100322   -6.03685064161975
H         6.92692402419915   -2.19619295903484   -4.76803285057300
