35
 energy: -44.228559204860 gnorm: 0.083154586263 xtb: 6.4.1 (025e99ea0bd20707e8cccc6e19fe66a0758c6dd1)
C         0.89215367975852    0.64575437328266    0.39012229237402
O         2.28633847581635    0.75120400387509    0.13359840963179
C         2.79121277960350    0.47700203366869   -1.10760354230551
C         2.12933016241488   -0.30241299704310   -2.05738922640210
C         2.77391664087191   -0.64234418503763   -3.25089158844223
C         4.13930643858276   -0.38605508038854   -3.43773404681136
C         4.84082701438983    0.25767518804488   -2.40966889775650
C         4.16589520309101    0.65273249767600   -1.24250515467713
C         4.80893159000479   -1.05460712585584   -4.62064893268965
C         5.48265793692698   -2.36040999650037   -4.12115134461276
C         4.50222913717686   -3.37368747170803   -3.50740794975737
C         4.99505807150448   -4.81191678352101   -3.63569469982955
C         4.92870589767215   -5.16200096270204   -5.10959979326467
C         5.61395229810472   -4.11102188631361   -5.95914084533915
C         6.38020786646894   -3.09976378095645   -5.12579205567559
H         0.41494625676103   -0.31766109637795    0.18290245734840
H         0.33882119410528    1.47642975620232   -0.05909187405402
H         0.87742686507211    0.84126470606490    1.46741733125992
H         1.10419710425534   -0.58379023653950   -1.83289339171601
H         2.29071902024550   -1.29627448709943   -3.97467906912470
H         5.91271321137955    0.42517054833278   -2.44225365325499
H         4.77407369793462    1.17482241677040   -0.50981585882097
H         5.63916669358960   -0.46135736381075   -5.03049001036151
H         4.08021948620222   -1.14062522440717   -5.43810976839028
H         6.08301950112480   -2.09916761784779   -3.23345002497491
H         3.51149002489003   -3.38907937453752   -3.97463589163890
H         4.23560886769883   -3.04245213782183   -2.49289695916601
H         4.25515254550456   -5.45525319987105   -3.14250970080612
H         5.97073203849835   -4.89425011957737   -3.13917060816640
H         3.86726882633066   -5.16630577876969   -5.38894581205556
H         5.30253519577322   -6.15965001400426   -5.36639891716541
H         4.85591838989106   -3.50399055467114   -6.46586399664830
H         6.21204134373757   -4.50604823225488   -6.79055237741596
H         6.83223956257234   -2.39726536211260   -5.83322306670260
H         7.21068401579250   -3.60167322710726   -4.60727277959694
