35
 energy: -44.220507989228 gnorm: 0.096095327507 xtb: 6.4.1 (025e99ea0bd20707e8cccc6e19fe66a0758c6dd1)
C         1.26510921447955    1.38400421045291    0.55056573104967
O         2.62451608193272    1.36348498439367    0.13551476335909
C         2.95290197473507    0.54044188511119   -0.90632487251557
C         1.96213882549804    0.06418294924057   -1.76611265492204
C         2.30121839421616   -0.56263151177222   -2.96928409090244
C         3.65724793183359   -0.72017533213758   -3.28747795854542
C         4.65671987306090   -0.19458924937635   -2.45786790441932
C         4.29551510938634    0.45419436531644   -1.26518799434826
C         4.15465354566790   -1.57278363699276   -4.43651845082360
C         4.97020337251505   -2.77228202438343   -3.88460516430779
C         4.12824573192564   -4.05652901780854   -3.96504039618520
C         5.03121739735726   -5.21057286355900   -4.39008907449203
C         5.62873573521146   -5.00058146978042   -5.76785292172478
C         6.37279679019973   -3.68561570187031   -5.88221123312756
C         6.34086837400242   -2.94466827090513   -4.55773464289190
H         0.87969930010854    0.53481809509801    1.12430651904844
H         0.58024961341452    1.61254959041862   -0.27206792738664
H         1.23505633335375    2.28403747765955    1.17349647557752
H         0.90308212677318    0.23880565554929   -1.59766344590584
H         1.52364323464369   -0.91428905444428   -3.64507024792620
H         5.67209873735347   -0.13233112191482   -2.83626738787171
H         4.95391844746985    1.06890952366297   -0.65862151977978
H         4.84057249423738   -0.87152631349153   -4.93346783806376
H         3.29964573242394   -1.88666324048734   -5.05060631081898
H         5.21818844595669   -2.45729007572923   -2.85699692182902
H         3.28535569047793   -3.94814502494483   -4.65633782790430
H         3.73376306180078   -4.14778230324656   -2.94225399226493
H         4.41575889251223   -6.11887594843103   -4.36234540793793
H         5.81705486286939   -5.49172146247038   -3.67687831646629
H         4.82817713125523   -5.13308902492286   -6.50693955747928
H         6.33077448466876   -5.83454045817211   -5.88033298257589
H         5.94005614524397   -3.01249856090795   -6.63022169019056
H         7.43640998066553   -3.86733413098906   -6.08397062219274
H         6.77461983029307   -1.94040799340524   -4.59793774054692
H         6.93057726793697   -3.50646503430268   -3.81807675801278
