35
 energy: -44.220070095113 gnorm: 0.081293959540 xtb: 6.4.1 (025e99ea0bd20707e8cccc6e19fe66a0758c6dd1)
C         1.51179567597087    0.86308906612539    0.78296158437250
O         2.14207444115692    1.50191850756011   -0.31945440123781
C         2.63198996269149    0.68651546478827   -1.30218923104262
C         3.74801469234755    1.12077786586186   -2.01883016749219
C         4.25458491737120    0.32967739726736   -3.05470637208411
C         3.61490243015096   -0.88659819785706   -3.33104588902131
C         2.55477191958311   -1.34235836411072   -2.53615990060057
C         2.09232489872894   -0.58921152655220   -1.44401199093745
C         3.80102188408134   -1.46832109347473   -4.71726569872101
C         4.89593137846376   -2.55349348621210   -4.89643108372009
C         5.95695039707442   -2.52145673996763   -3.78383721824186
C         6.47212003114984   -3.91486450199519   -3.43619306979141
C         6.60757785695556   -4.87229076932087   -4.60424438834418
C         5.37331973775502   -5.03206498206351   -5.46848899430888
C         4.33937369319961   -3.95139282769841   -5.20894319349579
H         0.46775933238955    0.59610528625138    0.58919850556725
H         1.48434571923412    1.56044799794268    1.62612753639563
H         2.02772633709424   -0.07112617815945    1.02803952965196
H         4.04779085301780    2.12677419518615   -1.73851788616178
H         4.94064433583271    0.74350149460518   -3.79162237558185
H         1.95439789684129   -2.16726493269652   -2.90647960209273
H         1.17727628344218   -0.90682116369102   -0.95298985571544
H         3.94539051819920   -0.63722199225059   -5.42269982496998
H         2.84555307464079   -1.94761248377692   -4.97029098059483
H         5.48490218794961   -2.31470213643788   -5.79797825099622
H         5.48675247957937   -2.08774609960340   -2.89450497058411
H         6.77742100901782   -1.84711199531720   -4.07040815563423
H         5.77383953949512   -4.27131753017610   -2.66813124441514
H         7.45213490832199   -3.83686973152859   -2.94758044543499
H         6.95477180150073   -5.85102579852706   -4.24894804516234
H         7.45479637922868   -4.51813049017783   -5.20239907976795
H         4.83788840027088   -5.97569321526845   -5.31765851498934
H         5.61532174101882   -4.96011534112203   -6.53678658146315
H         3.64496280510390   -4.29443220819602   -4.43537172469999
H         3.74303139292704   -3.85442032178387   -6.12842030582292
