35
 energy: -44.223206501839 gnorm: 0.093325302963 xtb: 6.4.1 (025e99ea0bd20707e8cccc6e19fe66a0758c6dd1)
C         1.59356078361219    1.04252116830975    0.84792894497106
O         2.56808658817080    1.65519113218581    0.01389635877679
C         2.87344613611630    0.86923788826925   -1.06299737058187
C         2.03987683754285   -0.14261633294602   -1.54151850693767
C         2.44959015017687   -0.91604615035513   -2.63213032573298
C         3.66856923934051   -0.67113019838074   -3.27942442328117
C         4.43176423818226    0.42187534665128   -2.84778799179422
C         4.09681760514794    1.12337455931626   -1.67749570400847
C         4.31217098848629   -1.52250342634435   -4.35440708333531
C         4.74641872529332   -2.93939979637830   -3.89358201911602
C         3.97065519184706   -4.03973421908024   -4.63662167534175
C         4.79574068270274   -5.31848989542645   -4.52772144770261
C         5.91644594274237   -5.14337380591971   -5.53405729909233
C         6.42341697598375   -3.71599484272482   -5.57159817441958
C         6.24465827801428   -3.07335408295475   -4.20802971517589
H         1.84186464216606    0.00172197431297    1.08013270990787
H         0.63287733696355    1.02746600782710    0.32366521388974
H         1.55890145583944    1.67484989948671    1.74121774366319
H         0.98812909807596   -0.22100976883902   -1.28046204221774
H         1.77603987130486   -1.68125952203367   -3.01390461192614
H         5.30846876287903    0.73112510747448   -3.40797567914804
H         4.75247911375816    1.95258903718539   -1.42889178813922
H         5.12041307011860   -0.87499345426850   -4.72411087963556
H         3.59956436273345   -1.64281531063257   -5.18167941625476
H         4.56444707216477   -3.07007193916335   -2.81353279594099
H         3.83635447821727   -3.66601322250693   -5.65760100255294
H         2.96235477470224   -4.09659041441334   -4.20057877794666
H         4.08241394474994   -6.12088235488782   -4.75554743935959
H         5.11666575692044   -5.47233406768492   -3.48916778485967
H         5.63589198184483   -5.38009373656003   -6.56844336645313
H         6.70459863052169   -5.82272320537986   -5.19011326425721
H         5.95129527010071   -3.16740185353221   -6.39380108288924
H         7.49730230330060   -3.76594101883343   -5.79358272643243
H         6.64030263538733   -2.05508709659634   -4.13807824332566
H         6.71778283087035   -3.79774758820115   -3.52841719573422
