35
 energy: -44.224236924116 gnorm: 0.097591605393 xtb: 6.4.1 (025e99ea0bd20707e8cccc6e19fe66a0758c6dd1)
C         1.32181965463973    1.06381363178235    0.75697448957266
O         2.53599017073884    1.41818543629507    0.10821724838595
C         2.86652191508231    0.73215028127563   -1.02790404424016
C         2.08352463596167   -0.18464288048253   -1.73080857912974
C         2.48068211642764   -0.82422660284459   -2.90923610231654
C         3.79144248770362   -0.64196721073225   -3.37137491203977
C         4.59363149860232    0.25282561023762   -2.65076658525445
C         4.15025760173965    0.95639041693265   -1.51838387659701
C         4.47493869585753   -1.34710547535812   -4.52474402004363
C         5.01129798370703   -2.69939123330267   -3.98421822627180
C         4.03549691593920   -3.87870402599568   -4.13148143354297
C         4.85043710515254   -5.16855430542730   -4.13187122159213
C         5.70060175906450   -5.29134547242302   -5.38147122192595
C         6.10031151913059   -3.91229764890296   -5.86551549694437
C         6.34703216926002   -2.98750961250811   -4.68731484593557
H         1.34417148795509    1.74618123520415    1.61296000799814
H         1.46306002911497    0.02578044933356    1.07403926463213
H         0.43904023700409    1.14890055639407    0.11473895503723
H         1.08065219183858   -0.38624027861412   -1.36464648982673
H         1.74561588364943   -1.42482178235947   -3.44209270096216
H         5.54213953001401    0.49372851213877   -3.12018623040514
H         4.75860259135296    1.80662328125789   -1.22459308415924
H         5.23553320779000   -0.63525689260289   -4.87684189264795
H         3.69493270509079   -1.50349513788451   -5.28223699512612
H         5.20815403158459   -2.45921502793919   -2.92579566637401
H         3.32186210525592   -3.86198043071381   -4.96247393004484
H         3.34745073011057   -3.86122171914279   -3.27338902429889
H         4.25285058602688   -6.05617527501839   -3.88775497321415
H         5.45569133263808   -5.16030474190805   -3.21598154022846
H         5.04761542534037   -5.65738339638573   -6.18417071324699
H         6.62246501796126   -5.86560737777952   -5.23522088520584
H         5.27455913865171   -3.49441401250245   -6.45149934475423
H         7.03557244334398   -4.01085146995676   -6.43170946285974
H         6.83924741189012   -2.06710848203354   -5.01728641540368
H         6.97206214189768   -3.56182595667071   -3.98734038757335
