35
 energy: -44.218821022903 gnorm: 0.100694181154 xtb: 6.4.1 (025e99ea0bd20707e8cccc6e19fe66a0758c6dd1)
C         2.76461158382206    1.70678549517672    0.79622729773179
O         3.55254975154012    1.78156350572619   -0.38455086654418
C         3.33427090156772    0.82113031084349   -1.33354480307422
C         2.49455205550931   -0.29084067859818   -1.25568582098319
C         2.46929061345672   -1.21249484709217   -2.30706980776777
C         3.15378545038349   -1.13457145661191   -3.52783935101307
C         3.96173646737739    0.01001070218548   -3.55201786553080
C         3.90718726400345    1.02832148806455   -2.58561113021307
C         3.24124534534542   -2.13834408818782   -4.65896206057344
C         3.70822857275994   -3.56300607892004   -4.25797447697473
C         4.22515576254277   -4.39075601685992   -5.44636378543835
C         5.58537962082425   -5.04549180145078   -5.22510938354010
C         6.55861461872725   -3.92304697577043   -4.92131830197525
C         6.08434722451801   -3.05900863548092   -3.77051517603979
C         4.76503471428854   -3.47536788811434   -3.14575903636498
H         3.19964170612862    2.49649102020744    1.41747630992110
H         2.93765888768878    0.71661756269230    1.22937149912745
H         1.68671687060438    1.72562769808877    0.60441038917228
H         1.98128181967806   -0.63415343515129   -0.36172869521140
H         1.80474077863448   -2.06477983755636   -2.17685108087870
H         4.36671100898617    0.21893417627280   -4.53710827027330
H         4.47900275859338    1.93613127679473   -2.75354270548611
H         3.98607746488817   -1.62970663641464   -5.28802357148416
H         2.27911638958371   -2.19330006214410   -5.18617205602503
H         2.84919728442207   -4.07118507799365   -3.78838468834654
H         4.32190372417384   -3.92379008762416   -6.43261197948935
H         3.56276999834904   -5.25650311410445   -5.59388608587647
H         5.86419459073088   -5.66162384735109   -6.08952646441644
H         5.54363892418709   -5.75980374152717   -4.39248052955308
H         6.63623023740469   -3.21629752277902   -5.75748958405863
H         7.55889555486002   -4.31978712877859   -4.71387417904849
H         6.08157787291844   -2.01072812659072   -4.08827467796747
H         6.83770064339960   -3.20253374279966   -2.98511042161654
H         4.48960876648547   -2.70058226969987   -2.42316432757863
H         4.81636583565719   -4.47684972270332   -2.69313864356883
