35
 energy: -44.221806340272 gnorm: 0.095355826384 xtb: 6.4.1 (025e99ea0bd20707e8cccc6e19fe66a0758c6dd1)
C         1.41120352152382    1.52813575391109    0.79347376821828
O         2.68402023854389    1.58495467174312    0.16308928791817
C         2.97540966909431    0.85675394122490   -0.95739408076181
C         2.03952522950268   -0.06501505732066   -1.42870235874281
C         2.33173615917591   -0.82631004274068   -2.56471977661259
C         3.59887901759496   -0.80115385216248   -3.16355170464607
C         4.55710382883333    0.07424332684638   -2.63542031773219
C         4.22590197523287    0.92335102520037   -1.56621691881765
C         3.99119803487522   -1.52494271782115   -4.43511090752430
C         4.66252797835945   -2.89526876007930   -4.15218190747245
C         3.99008856598302   -4.16183864248957   -4.70741050988005
C         4.90069371163444   -5.38076173489055   -4.59398138034900
C         6.23324132453177   -5.28036780069708   -5.31063728496948
C         6.45440126095346   -3.83990665673519   -5.72536565890922
C         6.13955281148373   -2.89920926928855   -4.57635754864883
H         1.53207788992497    2.19817645057708    1.65095333639119
H         1.16971679267592    0.51145653278203    1.11911056221359
H         0.67453000282928    2.02727937896427    0.15537225808941
H         1.04993209993066    0.02793444320935   -0.98991406945735
H         1.59187355026682   -1.49190419825844   -3.00581030033586
H         5.52029049566997    0.13143750394325   -3.13246837469187
H         4.99635904947311    1.61748563558713   -1.24393501925848
H         4.60502493087568   -0.85488291843233   -5.05433762940154
H         3.00253779651553   -1.65869441552151   -4.89481091560904
H         4.71129361985027   -3.03390657247282   -3.05897712694972
H         3.66973068020313   -3.81259678654633   -5.69508647036116
H         3.13386303180305   -4.37194170494009   -4.04955771139452
H         4.34670355753918   -6.24701538802168   -4.97774288613956
H         5.11011577538257   -5.61377930333784   -3.54179325331125
H         6.18584315007728   -5.89236569340669   -6.22053474001379
H         7.00413093556388   -5.57645196665430   -4.59017830725733
H         5.88517164652865   -3.63593319944590   -6.63873484479502
H         7.51630498220279   -3.75042056711959   -5.98871748415048
H         6.48058965159396   -1.89405459166907   -4.84403882943775
H         6.79348513636246   -3.04541397664092   -3.70373926647485
