35
 energy: -44.220936408078 gnorm: 0.102926532606 xtb: 6.4.1 (025e99ea0bd20707e8cccc6e19fe66a0758c6dd1)
C         0.86351972124150    1.04601562252919    0.26042557545820
O         2.27852550538363    0.95357965977701    0.16097908425000
C         2.77012835283939    0.48187225481773   -1.02497447572078
C         2.10898536268945   -0.35122783425823   -1.92858027643440
C         2.77596761092159   -0.84501623332915   -3.05410262532892
C         4.11566809685822   -0.49873590675173   -3.27810284099280
C         4.85854223714156    0.23498628328114   -2.34363639485382
C         4.11011007404175    0.76308591932863   -1.27835026701667
C         4.78231112280018   -1.21724555571100   -4.43308263106187
C         5.49394356676053   -2.52544850385772   -3.99637849238075
C         4.42276205964746   -3.52990603623765   -3.53999259396605
C         4.89004079349172   -4.96148689779636   -3.78508080329110
C         5.21794381289447   -5.19687719888977   -5.24673356179723
C         5.55426572685469   -3.96984577000657   -6.06960724218041
C         6.32853171620272   -2.99879906557657   -5.19677206884580
H         0.41955446548298    0.11129560503087    0.61823795056014
H         0.45098245085088    1.62430364704931   -0.57227350784383
H         0.64210679224060    1.70672949694488    1.10507891343499
H         1.10086172523215   -0.68864954301035   -1.70429774498766
H         2.35813880056222   -1.50274494959697   -3.81422441529139
H         5.91018718024940    0.32133677810838   -2.59788628476257
H         4.72846931120194    1.30446327422395   -0.56853691085103
H         5.63568519838284   -0.61632340092256   -4.77927706233557
H         4.10413763781360   -1.54648156610053   -5.23204886856338
H         6.23264024212651   -2.28802850775422   -3.21237964437121
H         3.49278845369298   -3.26340922514731   -4.05402702421339
H         4.15987056274296   -3.36258789166825   -2.48503834488011
H         4.05790369514121   -5.60594648079294   -3.47396495279183
H         5.73212352543404   -5.22372861976035   -3.13133727918593
H         4.37174024567283   -5.71556607819974   -5.71535148317558
H         6.12443758330252   -5.80291309673733   -5.35622009008119
H         4.71515401770225   -3.46128348704037   -6.55656385248845
H         6.15498307097199   -4.37075118300165   -6.89629641053963
H         6.63701632025279   -2.12434326227242   -5.77854489396787
H         7.22684373188079   -3.50848371185402   -4.81766383143499
