35
 energy: -44.223084435269 gnorm: 0.086707468321 xtb: 6.4.1 (025e99ea0bd20707e8cccc6e19fe66a0758c6dd1)
C         0.66189662408048    0.25478326602817   -0.11062435496483
O         2.06989181685791    0.39201906247781    0.02862810341377
C         2.86474983519347    0.39802975778058   -1.08440004765008
C         2.36917874968404    0.61431577531342   -2.37098424280440
C         3.16551556476275    0.25676952397273   -3.46345904238124
C         4.38626387240736   -0.40800399363349   -3.28253572903840
C         5.00053260732515   -0.25218099077961   -2.03280341399292
C         4.22814854615452    0.15882688757751   -0.93354465341150
C         5.18082843870782   -1.04976740055489   -4.40121986391974
C         5.67693689794495   -2.46756158504011   -4.01101195142433
C         4.54793421560373   -3.26322095691764   -3.33504454357639
C         4.73110777448945   -4.76210156812538   -3.55332363811188
C         4.70768170373556   -5.17441209953314   -5.01236750735614
C         5.15435201728611   -4.01898802230688   -5.88490431572805
C         6.24985245292658   -3.18830552794795   -5.24139351598324
H         0.55508637096097   -0.36252015890838   -1.00860231001054
H         0.16841739758192    1.21019445640444   -0.31473097113278
H         0.30272839697831   -0.19035151060848    0.82310953833676
H         1.37815776791093    1.03961289256408   -2.50315494762675
H         2.72754995360620    0.31224819687521   -4.45848735004714
H         6.04548969229457   -0.53614341189977   -1.95873236997661
H         4.64637000184660    0.37385144525235    0.04530560428748
H         6.06496047489251   -0.42582064817038   -4.59668421953288
H         4.55753528637254   -1.15791156198497   -5.29925836867756
H         6.56301489093870   -2.36600800906663   -3.36197583389045
H         3.53035911118611   -3.03696623322588   -3.67187173302033
H         4.50689744130208   -2.96658925927940   -2.27657329517358
H         3.91842195260657   -5.30284890570168   -3.05161909621821
H         5.63217708045538   -5.14599189839155   -3.05738315584943
H         3.69728545655199   -5.33222515911749   -5.41098492817497
H         5.37470042210546   -6.00891810933264   -5.25666960071606
H         4.29910988421018   -3.37656504302173   -6.12096448849950
H         5.52240364791113   -4.40437608097074   -6.84459983990180
H         6.56630313582608   -2.35681439489939   -5.87918406330876
H         7.13468625584572   -3.73503563477228   -4.88275539686162
