35
 energy: -44.219365145322 gnorm: 0.100205667064 xtb: 6.4.1 (025e99ea0bd20707e8cccc6e19fe66a0758c6dd1)
C         1.45236955927736    1.68794699517538    0.74665133127054
O         2.75740378723153    1.36338797648428    0.28597522676906
C         3.00661850099690    0.72815113377425   -0.89936575106047
C         2.10059717057739   -0.14371793601741   -1.50487290192829
C         2.46349788460478   -0.85532472191337   -2.65265846049386
C         3.72738203526441   -0.71014635632688   -3.24121909565360
C         4.62541164023843    0.23938988853106   -2.73588604358847
C         4.19330425993462    0.93888310051794   -1.59664643187152
C         4.03026658430306   -1.61588887917709   -4.41703317885679
C         4.54369308415064   -3.02677012663356   -4.02418014101910
C         3.91979672151302   -4.06130427822643   -4.97557136196458
C         4.73735050219563   -5.34780789287836   -4.90957384719959
C         6.14661203213016   -5.22269773367782   -5.45518099313087
C         6.53215508159483   -3.76210607194543   -5.33741765488006
C         6.07927598351461   -3.07064859007208   -4.06421388742859
H         1.32256082614140    2.77511243496167    0.75422445265023
H         1.37747111397098    1.27047478988674    1.75566024176431
H         0.71261108395326    1.30692802337306    0.03490158119625
H         1.21461602933568   -0.30757348477805   -0.89770068487220
H         1.88895926020377   -1.71892028837102   -2.98293284878983
H         5.60840573193736    0.39232093966263   -3.16992658599613
H         4.87150401044691    1.72755876924163   -1.28467148904355
H         4.79613412670776   -1.09607529188238   -5.01070486410684
H         3.06562778100029   -1.64011353989922   -4.94195966972433
H         4.17624946023245   -3.17086459307897   -2.99417179605795
H         3.95727851160887   -3.65844063329506   -5.99360812524415
H         2.84058742809447   -4.16052117040465   -4.78715937782145
H         4.16199326047437   -6.19274363183962   -5.30909983818279
H         4.76095013899334   -5.48801373131133   -3.82097841077133
H         6.09825352352122   -5.46959964793964   -6.52354529705986
H         6.86463867467796   -5.88989581247214   -4.96499508120762
H         6.11203142324828   -3.19313993588808   -6.17386516887518
H         7.59816306295074   -3.54175590263792   -5.47910126136705
H         6.58379487141217   -2.09982260484258   -4.09961047137953
H         6.53349153191663   -3.53520780845757   -3.17632935886300
