35
 energy: -44.226694025126 gnorm: 0.103590467086 xtb: 6.4.1 (025e99ea0bd20707e8cccc6e19fe66a0758c6dd1)
C         1.07487741262416    1.27067209586323    0.35043660334428
O         2.45069266741657    1.33772658972542   -0.00072071337044
C         2.81616547121133    0.56672540992309   -1.06967061011072
C         1.94942721509479   -0.18323018524385   -1.86591217680874
C         2.50980973263788   -0.87119615007591   -2.94672996933488
C         3.87575917486079   -0.73763676421000   -3.23173438869670
C         4.75756129577360   -0.00233216960823   -2.42849723070467
C         4.19326568487989    0.56894236889325   -1.27563543654130
C         4.60195789059812   -1.28619777292342   -4.44266939135384
C         5.40015907056773   -2.54506282747584   -4.01062791441642
C         4.40065144527915   -3.64688196535578   -3.62122846224016
C         4.97760087572308   -5.04473698585444   -3.82364413124781
C         5.30332210718879   -5.23941032664630   -5.29176052287629
C         5.77661695977997   -3.99932827931442   -6.02253281864776
C         6.38535093044189   -2.93971650236729   -5.12201818928008
H         0.95621277477159    1.79884922372519    1.30216344595963
H         0.72303396975603    0.23824070852572    0.44144991899243
H         0.51058052033146    1.80994498132285   -0.41752143069476
H         0.88350340037190   -0.33373067959549   -1.71885660796830
H         1.83058903914205   -1.44959466269537   -3.57049875860502
H         5.83720888941201    0.03529693658229   -2.53338580319784
H         4.75319445772055    1.15113578214854   -0.54980957375044
H         5.26382613692709   -0.47591466924553   -4.78116170158921
H         3.89078127253409   -1.67204030872700   -5.18564720371316
H         6.03145891088019   -2.27508303238478   -3.14733963849781
H         3.55525699389884   -3.42216736964836   -4.28070888305845
H         4.12373242305035   -3.50275618423781   -2.56643967682106
H         4.13050037611702   -5.69064810084750   -3.55946057402117
H         5.87406749176430   -5.33997888358413   -3.26289956330241
H         4.39712143417402   -5.56685181893997   -5.81738757326232
H         6.01927223370170   -6.05699164032357   -5.43308984227655
H         5.03839768726004   -3.44459330523497   -6.61174603172007
H         6.53047467478331   -4.32817301112353   -6.74955492703991
H         6.78579597897685   -2.09497324516505   -5.69153369663691
H         7.24328347030669   -3.36593238763501   -4.58094726289507
