35
 energy: -44.218426899652 gnorm: 0.107227494143 xtb: 6.4.1 (025e99ea0bd20707e8cccc6e19fe66a0758c6dd1)
C         1.00642799839187    1.08798762681855    0.52780203040102
O         2.31364591651647    1.30616530491856    0.01374445839327
C         2.76438722926583    0.53943822405192   -1.02530746961741
C         2.16098917662404   -0.46546506328385   -1.78276994077670
C         2.80266389409081   -1.06725679273493   -2.86978102935344
C         4.04750381123417   -0.59264751152638   -3.30567451433538
C         4.71859258553213    0.35143084407610   -2.51713557316443
C         4.04317920388643    0.91961542850294   -1.42404020584577
C         4.65644909388972   -1.29909531321242   -4.49930949882046
C         5.38814810766810   -2.56390712339486   -3.97643874580204
C         4.27255416122094   -3.60965380920160   -3.81359876919065
C         4.74461677459560   -5.03965352121871   -4.05874998991761
C         5.20344942828215   -5.15676584251396   -5.49927595998436
C         5.99963402002942   -3.94880099146114   -5.94955438996224
C         6.55204529611952   -3.06554992385719   -4.84548460210995
H         1.06880866821247    0.21606427441232    1.18711582174703
H         0.20874547766991    0.91930881591188   -0.20243207749167
H         0.87858544768434    1.98378610342606    1.14441142187207
H         1.13131728609110   -0.72152581507152   -1.54893664815617
H         2.18435941025522   -1.81542681370446   -3.36264438366365
H         5.71097937457943    0.74541546081161   -2.71207419899168
H         4.54992477587225    1.66426130834634   -0.81740685658285
H         5.39868619639319   -0.60574182738645   -4.92067674457193
H         3.82207345721800   -1.64081996948620   -5.12676804971512
H         5.81886806573861   -2.32736242586491   -2.98890537971474
H         3.52668031939466   -3.54818786188228   -4.61359689568418
H         3.82480254283701   -3.48307196282759   -2.81683837053486
H         3.82519042729979   -5.60004705966887   -3.84617611744266
H         5.37990636295383   -5.32292204934689   -3.20938509579707
H         4.32220674538942   -5.30776780914294   -6.13591646038087
H         5.76813142636653   -6.08682748684540   -5.63010922568448
H         5.32049511500484   -3.32404215578316   -6.53973871838307
H         6.90543769388118   -4.17749747106502   -6.52593888261185
H         7.14074061917044   -2.20639219270835   -5.18250259929944
H         7.12526530292625   -3.75860375110721   -4.21179604496851
