35
 energy: -44.228140052898 gnorm: 0.078377896467 xtb: 6.4.1 (025e99ea0bd20707e8cccc6e19fe66a0758c6dd1)
C         1.31019730653897    1.47734969204349    0.63079002423860
O         1.88181700736745    1.72775939864760   -0.64640270325517
C         2.48049892683832    0.72581048934594   -1.35938614906466
C         2.66082651106622    0.98202557205963   -2.71935123553278
C         3.12045297193264   -0.01158742179805   -3.58939122094956
C         3.43502848017729   -1.29137392648614   -3.11182208861096
C         3.48833415779250   -1.48462450643788   -1.72500902681154
C         3.00598061645673   -0.47119316142007   -0.87992536185724
C         3.88187889556951   -2.39209308395426   -4.05171004523496
C         5.42983171163014   -2.40543862791219   -4.16211907711333
C         6.11592723179169   -3.41928022683622   -3.23150047449227
C         6.16581870522562   -4.82238094543248   -3.82871117394054
C         5.16472803860511   -4.93039133479597   -4.96251406777101
C         5.46911283502651   -3.97240802011706   -6.09629425553702
C         5.91464708788241   -2.60646112506556   -5.60644828841482
H         0.68249486214254    0.58022970749912    0.62947597567211
H         0.67483992163536    2.32912391536656    0.89307510886577
H         2.10385793549341    1.38494070378594    1.37950168469478
H         2.50826267911098    1.99964486988314   -3.06812705581089
H         3.42111357444396    0.29908795147878   -4.58841930671476
H         3.84010932370057   -2.44867909871138   -1.37158369830757
H         3.07629687515312   -0.61374908522498    0.19433066224515
H         3.50705412579731   -2.21394331760912   -5.07002943313796
H         3.44145341807418   -3.29415486663818   -3.60564658074314
H         5.78263884066185   -1.39113144055853   -3.91031899027866
H         5.51974031809119   -3.41750835815111   -2.31244613655240
H         7.13146365446134   -3.04300642993309   -3.03878417961274
H         6.03642195765865   -5.60870020216915   -3.07403781153521
H         7.19018031494075   -4.93116553040556   -4.20832130265794
H         4.13282327720768   -5.01256028019757   -4.59765489808634
H         5.36917675451833   -5.91949654545901   -5.38780146451220
H         4.60094591081853   -3.85499615710171   -6.75384382952510
H         6.22604563142923   -4.41663494130240   -6.75562470547503
H         5.53314166495616   -1.78902236056322   -6.22656343887602
H         7.01445240369551   -2.58491405742350   -5.58571277868895
