35
 energy: -44.219184755450 gnorm: 0.090047627021 xtb: 6.4.1 (025e99ea0bd20707e8cccc6e19fe66a0758c6dd1)
C         0.71614792855463    0.74570748257594    0.16036202263259
O         2.12997957437109    0.60859766538680    0.10598972111173
C         2.73406195728769    0.27510169780760   -1.07491331053954
C         2.09386159460935   -0.00716635652229   -2.28244693726643
C         2.76008730819266   -0.43736302721318   -3.43421381989201
C         4.14069800377871   -0.65902732223450   -3.33591546416888
C         4.81531776096681   -0.27140891667093   -2.17054946717653
C         4.12554914189394    0.22888225943135   -1.05349869181663
C         5.00673296935787   -1.09624539532270   -4.49930324151820
C         5.86369746134457   -2.34874690057477   -4.17468343964000
C         5.09380063333885   -3.22977869790579   -3.17683841959371
C         5.33467647308672   -4.69886426479255   -3.51091600613941
C         4.80457881385427   -5.05452293138967   -4.88636544341064
C         4.94459124785996   -3.92337847236110   -5.88473831047276
C         6.13628074427245   -3.06165770526062   -5.50847480403050
H         0.29515873853351   -0.01755174817080   -0.50223876459773
H         0.47230676995694    1.77692455545977   -0.11372671972169
H         0.31751648929997    0.62294907585704    1.17279923812754
H         1.05785635426072    0.28978464629974   -2.42022417019990
H         2.33400842172124   -0.51519598804218   -4.43289890924952
H         5.89892699259923   -0.30985948367887   -2.21922266896499
H         4.78153068606669    0.67014262292622   -0.30900552268873
H         5.56644919461655   -0.22004454414842   -4.85734673000571
H         4.38148683093886   -1.52289904211578   -5.29535387068312
H         6.79856774879822   -2.16620126039900   -3.61845520087850
H         4.01026653223112   -3.09769163217291   -3.26962694496134
H         5.30043897085928   -3.02152172816709   -2.11666607584702
H         4.83744439931637   -5.37170877582825   -2.80055419343006
H         6.39732535244154   -4.95463379868201   -3.40789199014479
H         3.73783318828974   -5.31245977060770   -4.87140736559682
H         5.43914045877644   -5.85481889329316   -5.28367597328466
H         3.98171810961867   -3.42122687831300   -6.02823009459768
H         5.16254771902871   -4.31240860012334   -6.88780959151877
H         6.17364443845431   -2.34926408851927   -6.33877270884103
H         7.07278945586778   -3.63611228195204   -5.44999966149263
