35
 energy: -44.227662776237 gnorm: 0.083580910642 xtb: 6.4.1 (025e99ea0bd20707e8cccc6e19fe66a0758c6dd1)
C         1.01617655511956    0.79419633945716    0.39227064058620
O         2.32873424300887    1.23988074876351    0.07725777498505
C         2.85810109995166    0.59917954020161   -1.00899254576849
C         2.11242619266070   -0.05227504117434   -1.99247874526640
C         2.79910280202325   -0.65916548509481   -3.04872306355972
C         4.17508301683632   -0.54780333177711   -3.29195223446374
C         4.91450148717996    0.12932826311166   -2.31307999558810
C         4.24084115088287    0.59838208175719   -1.17288496906554
C         4.72083148650485   -1.25356888348331   -4.51616663130950
C         5.69728048827878   -2.43477126820591   -4.27155585660455
C         5.00408512299101   -3.49320675324369   -3.39757225311796
C         3.97642640931599   -4.37030112787994   -4.10641950589394
C         4.68763136906153   -5.14856336256547   -5.19630627386629
C         6.07830721539781   -4.62263217487823   -5.48829381453402
C         6.13568572951167   -3.10858905171778   -5.58125555217575
H         0.88049616136147    0.93901204168678    1.46905084125688
H         0.84331963151447   -0.27678264062840    0.24695612438932
H         0.25607779774714    1.41309330322901   -0.09580947264755
H         1.04004530445812   -0.21508830474506   -1.92954706698879
H         2.18116309428715   -1.13472535852959   -3.80830612575844
H         5.99920661983281    0.16516779299308   -2.32674694941136
H         4.87747124616280    0.99168676625547   -0.38592491484700
H         5.24403630386232   -0.58314295871312   -5.21329725608249
H         3.88363662152800   -1.71092759524980   -5.06076780221571
H         6.56154394585956   -2.10783372184685   -3.66918078048806
H         4.54885993589288   -2.96587474270192   -2.55211744637330
H         5.80710510773859   -4.08580143457355   -2.93494258057985
H         3.07038606460011   -3.85074011402520   -4.44364438767697
H         3.57904702676148   -4.98706147744381   -3.28974886240105
H         4.18629459451762   -5.06783318352645   -6.16936611932569
H         4.79749206936972   -6.16615246484556   -4.80459105879084
H         6.28608511011104   -5.04543118877367   -6.47720237228000
H         6.86414194840212   -4.98945553726340   -4.81531101386383
H         5.60074440493022   -2.68026409440150   -6.43487773349794
H         7.17603275866101   -2.79663193623738   -5.75683113506319
