35
 energy: -44.221537787564 gnorm: 0.109961879760 xtb: 6.4.1 (025e99ea0bd20707e8cccc6e19fe66a0758c6dd1)
C         0.89029129032765    1.26070073035567    0.23314897710937
O         2.29654597867190    1.07523232978410    0.13974341266084
C         2.80826928208267    0.51393697790423   -0.99768959932247
C         2.12226145358117    0.27042218606719   -2.18838814561320
C         2.79548105552739   -0.38775342891517   -3.22234803558047
C         4.17711106345856   -0.59981413485151   -3.11740860036422
C         4.88179133226091   -0.22000038351038   -1.96736296351370
C         4.18599398003353    0.34594540560317   -0.88595376807119
C         4.93687814783991   -1.11452803811532   -4.32259360289891
C         5.19139255535651   -2.64392694820001   -4.25412785503143
C         3.97608356162157   -3.58188604828434   -4.34306381301658
C         4.38055246269995   -5.02415677586807   -4.05306129622912
C         5.76306960860040   -5.30229952590137   -4.61041281989295
C         6.02334168410587   -4.39664112904031   -5.79695441859419
C         6.25477114215981   -2.97681162043614   -5.31240789294693
H         0.30265309856974    0.44632815644106   -0.20310212053928
H         0.52962367991221    2.19832044837328   -0.20133915668389
H         0.70204382559368    1.17413571348320    1.30835833328341
H         1.05802498288770    0.47953609958294   -2.25274198630084
H         2.35427757720556   -0.66467492924849   -4.17818644663052
H         5.95484816619782   -0.37448909307827   -1.91502986966137
H         4.73022138496078    0.65671068702459    0.00091377695921
H         5.93958097364307   -0.67971230072719   -4.20123607942671
H         4.43349236238849   -0.83597601256914   -5.25836824572298
H         5.50287980177403   -2.78661539046058   -3.20564756193552
H         3.56389341745533   -3.45737255777921   -5.35038626673370
H         3.25086900397917   -3.22019436406083   -3.59923672507708
H         3.66833720789706   -5.68152074451735   -4.56803257625685
H         4.31457980314362   -5.08848329079858   -2.95909404322306
H         5.72739190840910   -6.34379668809461   -4.95495911518590
H         6.53980289523195   -5.23088961684371   -3.84061817806285
H         5.24344859418664   -4.45895337993223   -6.56360606553017
H         6.95733837235478   -4.62219546456923   -6.32778102577775
H         5.86447348487117   -2.23992248872798   -6.02160283812869
H         7.26180634308931   -2.90461465741356   -4.87521952105617
