35
 energy: -44.218584367243 gnorm: 0.089829655276 xtb: 6.4.1 (025e99ea0bd20707e8cccc6e19fe66a0758c6dd1)
C         1.24328363771966    0.80028111118503    0.46629545879495
O         2.62994873770401    0.49535587167702    0.39661128698668
C         3.02233957158285    0.35119653128267   -0.90566156561772
C         2.27582744227864    0.66480394323139   -2.04234061317095
C         2.74832966786194    0.31680989027853   -3.31164538503479
C         3.98723331277334   -0.31296682038911   -3.49435429888812
C         4.78364616977118   -0.50151530059473   -2.35698287293247
C         4.28082650479035   -0.21988583053918   -1.07568210805575
C         4.37260343721630   -1.01479407449163   -4.78026863252202
C         4.99294947001941   -2.40759862960686   -4.49079940762432
C         4.08865461538853   -3.49718907260188   -3.89105254206977
C         4.75560853439473   -4.83004488688942   -3.56469500055458
C         6.04500730178279   -5.05973759956804   -4.32892653687100
C         5.88905087813052   -4.44088012542714   -5.70316547811685
C         5.65965957949973   -2.94174303293726   -5.76819137672905
H         0.85602931582324    0.90849569834026    1.48470600938074
H         0.67845128305744    0.01030231152360   -0.03857057341346
H         0.99049002371458    1.65979253466903   -0.16326094962838
H         1.33200732801036    1.18632323083579   -1.90933482564934
H         2.11782793126748    0.56903397537581   -4.16242365287460
H         5.75198272263435   -0.98800158573912   -2.41790819712353
H         4.87677917596623   -0.20650163936836   -0.16796307063147
H         5.09393869276523   -0.41504288467786   -5.35401010190188
H         3.45419979191565   -1.19242278818245   -5.35615529596719
H         5.76203026094727   -2.22083372818535   -3.72247081371128
H         3.36276655979711   -3.79153520266518   -4.65691789246558
H         3.57893894470099   -3.09673824210482   -3.00230914266007
H         4.02445273446959   -5.62881698807610   -3.74343419785710
H         4.87254407579285   -4.84026046595589   -2.47314730937560
H         6.21066089911259   -6.12398030102715   -4.54022666307257
H         6.89674943807443   -4.69129736853196   -3.74601582995346
H         5.04708605130194   -4.91483831917523   -6.21923684553748
H         6.86003479826356   -4.67439935835686   -6.15886324170062
H         4.93828722145856   -2.73087443251226   -6.56408815091693
H         6.58822393080378   -2.42606061025559   -6.05508133957185
