35
 energy: -44.217618908101 gnorm: 0.084158663008 xtb: 6.4.1 (025e99ea0bd20707e8cccc6e19fe66a0758c6dd1)
C         0.92773816662465    0.41341136346408    0.18160145093171
O         2.34697860859520    0.35581771306923    0.12578989779565
C         2.74703759728062   -0.05941324107917   -1.11445328195539
C         4.07388474300119    0.20066524143952   -1.46014837676563
C         4.53480492685834   -0.22516800252361   -2.70983293204016
C         3.63817191305189   -0.73982337539877   -3.65643877431248
C         2.28195078921739   -0.87036891237311   -3.32923870966957
C         1.82639460097682   -0.54019960131685   -2.04186493317280
C         4.19207229678968   -0.99700176265829   -5.04269307309775
C         4.79293539664372   -2.42785009035496   -5.05545174417291
C         6.32583514419694   -2.36769609690611   -5.16153049030603
C         6.94595703149686   -3.42533868645749   -4.25341023162529
C         6.22755653160191   -4.75813111446139   -4.33661380951523
C         4.85934192864844   -4.62709282339199   -3.69891684642362
C         4.39312295301260   -3.18471380379112   -3.77918758807906
H         0.64722179433768    0.94192220744903   -0.73536267716522
H         0.59348419335728    0.98069661394953    1.05593178327911
H         0.42878667322678   -0.56123821403325    0.17104782663282
H         4.67627844918224    0.57812878345345   -0.63849611925285
H         5.58718717318035   -0.15654996073577   -2.97956665230087
H         1.53383289881551   -1.13228862882616   -4.07070629239321
H         0.78268687762825   -0.79187886725337   -1.87869533498276
H         4.99669782333385   -0.25895601399275   -5.17335127652216
H         3.43343005545421   -0.85272036939927   -5.82391487256480
H         4.35631439005251   -3.00626628016420   -5.88701174272865
H         6.56840283989358   -1.33952679054924   -4.87147593739490
H         6.63845541724611   -2.42700452376409   -6.21451996908863
H         6.99342435807604   -3.07240369672941   -3.21525941304755
H         7.99570627424600   -3.65276996483442   -4.48047010005065
H         6.76896268342993   -5.59668102999708   -3.88008910667826
H         6.12504051366310   -5.01414134909044   -5.39724899214060
H         4.96859838937605   -4.84058682118151   -2.63010716493666
H         4.22211649379545   -5.43835267198566   -4.07415365221859
H         4.93113026099473   -2.70215866433401   -2.95700512866393
H         3.31322547355140   -3.15899354676218   -3.57031951567488
