35
 energy: -44.212569400289 gnorm: 0.116525113819 xtb: 6.4.1 (025e99ea0bd20707e8cccc6e19fe66a0758c6dd1)
C         0.77779496428745    0.99416299445619    0.31227037314434
O         2.17071182660505    1.09795839223247    0.04829214210521
C         2.64087960183030    0.48422626840261   -1.07995526265549
C         1.98475498607615    0.29277062898193   -2.29671919209229
C         2.72593167936542   -0.15261815671814   -3.39570908028218
C         4.02951338448542   -0.65927206996484   -3.30158114623792
C         4.71821827283023   -0.39152925766696   -2.11101946213990
C         3.95986096749358    0.04333126289743   -1.01117175654962
C         4.87614383635008   -1.16861199644220   -4.44981328474642
C         5.68448988565516   -2.45466280504629   -4.13173128831052
C         4.88868186122863   -3.49267284165182   -3.32310431241705
C         5.51139387475267   -4.84167514256142   -3.66989523931173
C         5.22105286970284   -5.29075501106420   -5.08883397742226
C         5.11946006518407   -4.04430419592914   -5.94433319947363
C         6.17762906715423   -3.07567386208607   -5.44805263130470
H         0.37243474273835   -0.02277966279681    0.33090035460672
H         0.20372491906310    1.42186644636776   -0.51568200584225
H         0.68439952286195    1.48896688323940    1.28461402275460
H         0.94246167638917    0.57985269781488   -2.40478335175439
H         2.22569632835059   -0.39037076424358   -4.33283841751952
H         5.69933380981099   -0.80133357782606   -1.89300750505799
H         4.40407081411326    0.15383234040486   -0.02640797216760
H         5.66034082231473   -0.52669093085312   -4.87663613996031
H         4.07947747121638   -1.23410148701937   -5.20326965803160
H         6.56851023535200   -2.07367252556101   -3.59316870945370
H         3.81365738118680   -3.39719417196769   -3.51101131474076
H         5.09467985617480   -3.29774626307796   -2.26027590570886
H         5.19587467046364   -5.60252347740672   -2.94454648221459
H         6.58798969820696   -4.76237920747827   -3.47012479368660
H         4.19653944465505   -5.68375832227069   -5.06389352175786
H         5.97385043057923   -5.96990734378580   -5.50482160482263
H         4.12937780934871   -3.58400967625933   -5.85637367230926
H         5.28438219217082   -4.40947173866347   -6.96631892142774
H         6.32578625646694   -2.37364974141486   -6.27479739334529
H         7.17495845938554   -3.53906299848977   -5.41533321448159
