35
 energy: -44.224703634882 gnorm: 0.097405684708 xtb: 6.4.1 (025e99ea0bd20707e8cccc6e19fe66a0758c6dd1)
C         0.63075616247533    0.93840924881578    0.12412574336018
O         2.04672776275815    1.03952178825576    0.05012534322927
C         2.68928466536499    0.46534778039711   -1.01200078286704
C         2.11094104980549    0.38893992901695   -2.27981376308905
C         2.75397768505069   -0.19453608914394   -3.37596725295176
C         4.09220448771351   -0.58438711557755   -3.22747905759290
C         4.75613483887726   -0.33171663238437   -2.01967448640169
C         4.03627009708176    0.12926912707785   -0.90470303735073
C         4.83857063224562   -1.08765818893132   -4.44579886101006
C         5.69375751829856   -2.36755293333008   -4.24818560232509
C         5.10368419501976   -3.45292322308522   -3.33252320129804
C         5.44680222967688   -4.91774127145517   -3.58633316329538
C         5.18330534138273   -5.36923243225085   -5.00973854713304
C         5.04612316951040   -4.14620629445605   -5.89360944612905
C         6.08349217215727   -3.09428445898744   -5.54491651017790
H         0.27015567909467   -0.09453649140511    0.16686617032154
H         0.16627490824475    1.53530522567251   -0.66705322368506
H         0.42373108655187    1.38284692987826    1.10321794354349
H         1.06430432743406    0.62360867884572   -2.45287872688563
H         2.28101861832959   -0.40246137908974   -4.33411646013007
H         5.80494733361301   -0.60859192408744   -1.98240626824943
H         4.63521262179470    0.19752414738006   -0.00143027372556
H         5.51591696148876   -0.26253466081493   -4.70957612499850
H         4.07515477311799   -1.29945108880060   -5.20672110847944
H         6.65184330368819   -1.99234216114123   -3.85071393810562
H         4.01430650590591   -3.34198000205244   -3.30010868836456
H         5.45057255785649   -3.30664698570193   -2.29893358729797
H         4.97973259099790   -5.59137425472081   -2.85651268534293
H         6.52416708352846   -5.12148027154312   -3.53128743157037
H         4.25177338683360   -5.90713688156470   -5.22793205354362
H         6.01173395844063   -5.97603324485387   -5.39248724238670
H         4.06005098410395   -3.66920363227328   -5.89266045780588
H         5.24836865162641   -4.45076933520001   -6.92866479575008
H         6.17994893118843   -2.32319645459585   -6.31589945621887
H         7.05535205111012   -3.58133390311160   -5.37539605657630
