35
 energy: -44.219885555726 gnorm: 0.109476422449 xtb: 6.4.1 (025e99ea0bd20707e8cccc6e19fe66a0758c6dd1)
C         0.88009288344271    1.09387303103127    0.43893089661124
O         2.25906152347986    1.21548822214923    0.11592841387839
C         2.75836940948856    0.73813614282691   -1.06453492110708
C         2.08360419779673   -0.17556571204527   -1.87540486573106
C         2.70665002991228   -0.77959550168211   -2.97196984221973
C         4.07124247950084   -0.50849341347115   -3.14306814495987
C         4.82535999024531    0.42238074140078   -2.41628217440032
C         4.06886401302295    1.05294324431199   -1.41429454317897
C         4.81426570655031   -1.24959319376142   -4.23546685313057
C         5.36794123088863   -2.66426139512283   -3.91816027576587
C         4.27320047105766   -3.73399862342684   -3.77031656072377
C         4.86851875743146   -5.11379377477219   -4.03414014427840
C         5.38856257214243   -5.35261379044043   -5.43837559433172
C         5.77846356460071   -4.04164733365978   -6.09043679868906
C         6.34441998712290   -3.14803521763120   -5.00167076720812
H         0.55210000207841    0.05915541902746    0.29534647441218
H         0.22420857524156    1.81879408549275   -0.05330587169587
H         0.89845279960720    1.27953678148203    1.51791081087299
H         1.03161665845954   -0.40340833630459   -1.72748839175720
H         2.07481455067262   -1.37766669340367   -3.62623880313686
H         5.90503086665145    0.52228449562931   -2.46513422064142
H         4.53085160405855    1.82918263719600   -0.81154048322407
H         5.62039942412552   -0.62097223596878   -4.64066982010350
H         4.06902430927512   -1.53835604708211   -4.98905424243912
H         5.92864349440729   -2.70394325075311   -2.96909044624075
H         3.48082682426965   -3.54871731841553   -4.50374528453062
H         3.98830677756407   -3.69597239298982   -2.70851368074963
H         4.17253786742318   -5.93127186216826   -3.80629468572727
H         5.72616045673648   -5.27967301303931   -3.36916688411896
H         4.72442026352973   -5.95283115381147   -6.07347833910661
H         6.31956103419388   -5.92437724519684   -5.35278248684579
H         4.88681617995416   -3.60074248031921   -6.54917272113479
H         6.50984658782250   -4.20469688967426   -6.89261830708867
H         6.79340741362982   -2.27149354774558   -5.47956229420466
H         7.08611676991655   -3.84092166446048   -4.57710013386016
