35
 energy: -44.222952501109 gnorm: 0.091925546102 xtb: 6.4.1 (025e99ea0bd20707e8cccc6e19fe66a0758c6dd1)
C         2.65484355429976    0.95835405551128    0.93381126972669
O         2.01278028877151    0.05493888186753    0.04371510898493
C         2.57182813873326    0.05537808818373   -1.20453662758604
C         1.82314684254293   -0.61729673413356   -2.17131176864740
C         2.38553431458064   -0.81937184507877   -3.43558185286547
C         3.64728007731273   -0.33105924153155   -3.80223152585812
C         4.33362928920212    0.39906394772908   -2.82280176050734
C         3.80432159386252    0.61049017276008   -1.53866517304058
C         4.36212036761286   -0.98939519412490   -4.96423173488412
C         4.99476926052908   -2.33357126128996   -4.51537511628970
C         3.97107271891940   -3.30452286789396   -3.90385961733140
C         4.57138728039735   -4.67532328422493   -3.60658861060515
C         6.07503111647620   -4.71467828531852   -3.79858904620589
C         6.29979659424040   -4.39474778984190   -5.26247586137576
C         5.75627707261074   -3.03219507337408   -5.65272883704987
H         3.68670259472440    0.62718920564734    1.09012224619874
H         2.07660327525836    0.94563895777581    1.86304122536445
H         2.70349659199356    1.97499189711473    0.52997200531871
H         0.79802739708234   -0.91916113151580   -1.97515533753877
H         1.71159302534122   -1.17797927714680   -4.21158247474120
H         5.21823672166737    0.92408409718008   -3.16903872468605
H         4.48853695853923    1.04621260995067   -0.81666248800955
H         5.12742839283521   -0.28483556971425   -5.32074918424698
H         3.70174730857813   -1.10105079066399   -5.83492291127227
H         5.75561095152954   -2.18250303578411   -3.73115988045477
H         3.01726676448739   -3.36131449380099   -4.43970638883815
H         3.60677879928217   -2.89894794453562   -2.94843579042933
H         4.01542507143852   -5.44748633110542   -4.15362026163379
H         4.37157434917361   -4.97108486853881   -2.56839088345758
H         6.50442296665572   -5.66884710367220   -3.46709863735680
H         6.54008677993095   -3.98300462126990   -3.12823492807960
H         5.93289542054556   -5.22934192407040   -5.86968830803602
H         7.36902604920112   -4.44349424844257   -5.50614287422567
H         5.18147523687839   -3.01042856247341   -6.58408504666149
H         6.63947363505899   -2.39759972527203   -5.81921771745778
