35
 energy: -44.228020997843 gnorm: 0.079371492986 xtb: 6.4.1 (025e99ea0bd20707e8cccc6e19fe66a0758c6dd1)
C         0.98648911632143    1.64441461128396    0.05880885681215
O         2.21586475838237    0.96870306022949    0.28842769376858
C         2.75016804807518    0.30712579441779   -0.78278777607440
C         2.06444749635696    0.00587014984153   -1.96037072746617
C         2.64352947148090   -0.54808693167990   -3.10635871317787
C         4.03050273237833   -0.74385594582935   -3.15986763831259
C         4.72291803563339   -0.58887347686173   -1.95157163423182
C         4.07444076100063   -0.12295450275556   -0.79559967191732
C         4.66077550078656   -1.06843878682136   -4.49854218738999
C         5.41464146601975   -2.40660397500934   -4.27599729257855
C         4.50196834036606   -3.49456371605311   -3.68606152425870
C         5.17125582082734   -4.86545680679368   -3.70946687597996
C         5.70534803018963   -5.28104772716773   -5.06644420409429
C         5.55755648675524   -4.21466710035048   -6.13266635227464
C         5.98784076836909   -2.84781177790971   -5.63184429973705
H         0.73755886320859    2.19791367440378    0.97013145258789
H         0.16361341725806    0.92464069953276    0.00596095296098
H         1.02099447344483    2.23917008070012   -0.85992999642474
H         1.00903764189933    0.25364612604806   -2.03238765838493
H         2.01689548733286   -0.81597903946522   -3.95520308944100
H         5.78519647974357   -0.77055034235781   -1.82267432147745
H         4.62354063758129    0.06676829156425    0.12188993069285
H         5.39436516248975   -0.33012103164151   -4.85342022701650
H         3.95707429180561   -1.17507863972204   -5.33525911460622
H         6.19267887415226   -2.15082276079896   -3.53712721619413
H         3.52585180046055   -3.44320392037223   -4.18069424134700
H         4.41027671705799   -3.21919091281876   -2.62502512752104
H         4.48021355379032   -5.66949294462049   -3.42563620286749
H         5.96013206246283   -4.78783065976333   -2.94992550094138
H         5.09125678400989   -6.14839184706671   -5.34086633519158
H         6.75349935113581   -5.58358880417366   -4.96230261735565
H         4.50742362108078   -4.16519291412626   -6.44030910958300
H         6.08990117837299   -4.52655709884856   -7.04059543346582
H         5.76855097231146   -2.10243358504179   -6.40295950378438
H         7.08076777593335   -2.89658256826457   -5.51523410094207
