35
 energy: -44.217398475609 gnorm: 0.109367688573 xtb: 6.4.1 (025e99ea0bd20707e8cccc6e19fe66a0758c6dd1)
C         0.80923339193028    1.13062686426455    0.06478362102894
O         2.10786834605513    0.55251395488769    0.06193925219500
C         2.70825517012683    0.13237531904867   -1.09291409701210
C         2.02877241394074    0.14707481934131   -2.31183014811141
C         2.78567737147998   -0.33284569028144   -3.38526576644070
C         4.16417175817673   -0.54738655220742   -3.24885110860004
C         4.84401271845650   -0.42057232188465   -2.03017471653353
C         4.06726590810329   -0.10402519498888   -0.90308255311795
C         4.83002578580123   -1.10148674137625   -4.49153317443603
C         5.58368031344764   -2.43153478623378   -4.22413230667524
C         4.86799061333273   -3.37762036669407   -3.24568294282767
C         5.53886774619012   -4.71781607577384   -3.53141138166138
C         5.14935019860852   -5.19560237737935   -4.91681893887755
C         5.02986598675300   -4.08717642599553   -5.94295493541960
C         6.00376759941362   -2.97479598447982   -5.59888203062248
H        -0.07677088800930    0.62592497887290   -0.33410078739728
H         0.84382609212077    2.10675067969874   -0.42915710573576
H         0.57920346427948    1.42131890424301    1.09511858493538
H         1.01384418132111    0.53374863573164   -2.34138274298679
H         2.41347059739709   -0.33576588179262   -4.40821575976948
H         5.90973930464704   -0.60104541237570   -1.93162127509616
H         4.55917837317298    0.14857646970977    0.03153346299127
H         5.56500336562578   -0.35909979277505   -4.83486232172588
H         4.08299566393286   -1.11939988044269   -5.29669637544281
H         6.45930040865333   -1.99668907847800   -3.71335458116599
H         3.78800084460694   -3.48945291484271   -3.39134841445941
H         5.01160435726753   -3.03787857166694   -2.20934980617404
H         5.30568528579511   -5.45941714939714   -2.75666809259218
H         6.62219796149797   -4.55421961583298   -3.46150797690699
H         4.24178017895693   -5.78963701420584   -4.74906645455845
H         5.85154899191165   -5.93168440275710   -5.32437000472394
H         4.00191938790486   -3.71071534883121   -5.90456687155835
H         5.32507267484747   -4.42141680637035   -6.94601915949402
H         6.03876677068593   -2.18258873348872   -6.35351972478978
H         7.04689378811758   -3.31891051745127   -5.53612128266735
