35
 energy: -44.218946737780 gnorm: 0.101835280979 xtb: 6.4.1 (025e99ea0bd20707e8cccc6e19fe66a0758c6dd1)
C         0.59287097494403    0.89906534457952   -0.28421904771378
O         2.00550363128569    1.01181207221140   -0.17271777108314
C         2.71543676850968    0.36120736191230   -1.14399297139643
C         2.29542727739527    0.02219318174534   -2.43097806652476
C         3.22764578376330   -0.33146920986898   -3.41148018187718
C         4.57710717001989   -0.49463210277858   -3.06911291516113
C         4.98497372089958   -0.38809678621876   -1.73279976408706
C         4.04674802766203    0.11705502143267   -0.81714227940339
C         5.50904002092642   -1.09425743889422   -4.10187519574346
C         5.83220807814628   -2.60334295796937   -3.93832255619623
C         4.59635330026390   -3.30740503120556   -3.35384638094733
C         4.83530397373383   -4.78843834860468   -3.63184691319758
C         4.58746496178991   -5.06268167832878   -5.10246725523522
C         4.98932343920680   -3.89642632558390   -5.98235239916222
C         6.16755018526327   -3.21974858797974   -5.30548481021989
H         0.27176228098213   -0.14282643344082   -0.38515014095219
H         0.26660396724749    1.42010026367891   -1.18979303998189
H         0.29463954179259    1.34985965995797    0.66806676526815
H         1.26113998122167    0.08220743679369   -2.75826600114964
H         2.88832933060466   -0.44294784877221   -4.43978458843797
H         5.98799184643722   -0.67984359724767   -1.43802032746505
H         4.31729332170886    0.47558020552258    0.17157280184277
H         6.37670414824001   -0.48396110441109   -4.39153474791376
H         4.91920057434954   -0.99705109645501   -5.02345157858057
H         6.66584730776105   -2.59051239397722   -3.21612020853762
H         3.69765608958853   -3.05004053396610   -3.92499407719956
H         4.39177273111082   -2.93201873094345   -2.34030423486989
H         4.20076662865767   -5.44513877034555   -3.02301172197731
H         5.84637208527663   -5.07582079169480   -3.31497588484535
H         3.56350932763920   -5.28688879848073   -5.42796289758097
H         5.33904693898107   -5.83425612987824   -5.30444537899915
H         4.15301802694330   -3.19958412686696   -6.10431551972466
H         5.34842775227195   -4.28827070234097   -6.94282287468671
H         6.62532509971320   -2.47427484182288   -5.96351698347036
H         6.93628049701852   -3.99471290612084   -5.16782587539942
