35
 energy: -44.217850672555 gnorm: 0.098630854935 xtb: 6.4.1 (025e99ea0bd20707e8cccc6e19fe66a0758c6dd1)
C         1.45854801631892    1.29420008084378    0.64278852660108
O         2.76874381129297    1.49266330691709    0.12832305679348
C         2.96696385802242    0.68031945560780   -0.95402317554991
C         1.98385420132277    0.21692473640407   -1.82948304724940
C         2.44456086628594   -0.49395770155329   -2.94208736869987
C         3.81421749907993   -0.66620911647715   -3.18550817139335
C         4.79706020338191   -0.21560406907723   -2.29420964216416
C         4.30816383994937    0.33476367670131   -1.09756844782372
C         4.21631687895903   -1.41204916013229   -4.44116977289379
C         5.10122897916730   -2.63652311378907   -4.08603557787109
C         4.29977060650856   -3.90492846029875   -3.74918962946318
C         4.18592399872741   -4.79124208628402   -4.98584985497991
C         5.54422862967394   -5.31613502972890   -5.40876083603969
C         6.63170679822570   -4.28093865649792   -5.20480164034886
C         5.98433420835064   -2.91220110028472   -5.31309290086676
H         1.35728753095056    1.97558101430579    1.49384827652954
H         1.43577845674973    0.26829997796408    1.02358024333787
H         0.63195598502669    1.49510552454789   -0.04669561934614
H         0.93722774272213    0.49451023301648   -1.74010368214950
H         1.81824744747811   -0.86123603533587   -3.75314299808686
H         5.86506792669056   -0.21511674934771   -2.48764116203831
H         4.99475083872927    0.67785139142192   -0.32933560441375
H         4.86548957343679   -0.79410828748248   -5.07829551994521
H         3.29952256004654   -1.73523003476227   -4.95274085469515
H         5.84059176800792   -2.45015355651013   -3.28897580828045
H         3.29453246186474   -3.57696724555285   -3.46276238410627
H         4.76890448162219   -4.46552400050994   -2.92719095872971
H         3.69394347612516   -4.25294608833809   -5.80607297118428
H         3.58744637623864   -5.66304523616655   -4.69082706421963
H         5.51556108418382   -5.44139776026476   -6.49880157259817
H         5.55851083638176   -6.28101273234767   -4.88933345656109
H         7.49144321982055   -4.29520383664798   -5.88341831190447
H         7.06374376199320   -4.36768779963822   -4.19940614252053
H         5.25812107704419   -2.99988034148240   -6.12747743077589
H         6.68571498834808   -2.07491436535183   -5.44531202455360
