35
 energy: -44.214003144831 gnorm: 0.100020953461 xtb: 6.4.1 (025e99ea0bd20707e8cccc6e19fe66a0758c6dd1)
C         1.71781042940524    1.39575888075759    0.90916285603014
O         2.94341030397076    1.47252271138633    0.19314075579066
C         2.97049859096453    0.79191518045947   -0.99290591439934
C         1.95124227439639    0.02115522236248   -1.55390048960280
C         2.23967024398735   -0.77735012283064   -2.66506716361641
C         3.43375150594961   -0.69599651775489   -3.39474864603611
C         4.42244912613091    0.13664443371413   -2.85380147696878
C         4.20724052996721    0.79721185501878   -1.63265021496990
C         3.83258674482945   -1.63333519621864   -4.51589715931188
C         4.49912756420642   -2.96166495609927   -4.06891891171070
C         4.01277472720986   -4.22165718984303   -4.80412862280150
C         4.98829204245385   -5.37161526025412   -4.57217214312179
C         6.26172239348129   -5.06400441130342   -5.33578754094461
C         6.52784551481333   -3.57658393405377   -5.44803038819652
C         6.01893610694708   -2.81152161464571   -4.23974581044116
H         1.98005275053204    1.33995669040279    1.97074254660472
H         1.21374080055935    0.48724933652040    0.56490129598622
H         0.97986775374989    2.18678104319869    0.73966266578405
H         0.97380208341101   -0.03964222060497   -1.08338621942625
H         1.45971577053752   -1.49941023702291   -2.90016995309305
H         5.27012108708918    0.18882728453140   -3.52966070884954
H         4.87741280928247    1.55671533224649   -1.24109411571615
H         4.62281654451837   -1.12799641121056   -5.08980909211939
H         2.95231163206469   -1.88941949417069   -5.12104113369449
H         4.37604706048008   -3.17241068742701   -2.99321791012023
H         3.87311895105244   -3.99929992989749   -5.86768697248614
H         3.04444850998775   -4.45413692987826   -4.33686716046340
H         4.50055959441060   -6.20820161379957   -5.08871227573904
H         5.21141257633174   -5.59744278681462   -3.52123265978280
H         6.14874416529222   -5.51444580170580   -6.33029237258887
H         7.06733900572510   -5.60188266967063   -4.82327742637359
H         6.02749554542326   -3.15998295902445   -6.32891876428970
H         7.59473853748496   -3.46451281748062   -5.68079808327740
H         6.41891226666990   -1.79862122597578   -4.35086373367484
H         6.63308898088884   -3.11260691228189   -3.37798606528875
