35
 energy: -44.217365660035 gnorm: 0.100736565628 xtb: 6.4.1 (025e99ea0bd20707e8cccc6e19fe66a0758c6dd1)
C         0.94691288855222    1.15112615378056    0.48273499035450
O         2.20145913673034    1.44720243967012   -0.11653783866229
C         2.72191548115743    0.65866819002851   -1.10547970380000
C         2.05065486690742   -0.29733755369453   -1.86911015440750
C         2.72821503641943   -0.99807759852093   -2.87179079752026
C         4.02520137836142   -0.60042034056341   -3.22474784729343
C         4.73367481383294    0.33144088076982   -2.45459343069266
C         4.07038169067631    0.90043264644381   -1.35451840210384
C         4.69366424721714   -1.37549538307767   -4.34146778748061
C         5.40385509201776   -2.69313003590043   -3.93159699245693
C         4.28706647082726   -3.72934295966121   -3.72255442797830
C         4.87421533070551   -5.10634857325610   -4.01743264920068
C         5.17679161312213   -5.14477610017651   -5.50280421520757
C         6.02573813390776   -4.00162481057596   -6.02081443120569
C         6.53009811962255   -3.14198494882446   -4.87586854900141
H         1.10158868105812    0.16945714116172    0.94234102513481
H         0.23613282332525    1.11718371529504   -0.34890881134906
H         0.82455706782433    1.97625422827823    1.19209983681094
H         1.07072896841258   -0.67676375288816   -1.59297552894197
H         2.17833449612470   -1.77281544130070   -3.40319062358940
H         5.70353611705124    0.70181301937350   -2.77121627794456
H         4.49890529186182    1.62704924229663   -0.67064089810337
H         5.41074611102463   -0.58804239670906   -4.61517700462448
H         3.98300364710678   -1.56854937938050   -5.15654713386046
H         5.84241099340078   -2.42416601301338   -2.95588069070283
H         3.44240635141744   -3.46192790261707   -4.36686904293267
H         3.92704308055125   -3.69745447801579   -2.68361167147457
H         4.27116136859506   -5.97254828587426   -3.71643870740166
H         5.81435724852632   -5.04935618934737   -3.45339392116449
H         4.18748460456266   -5.09220088717627   -5.97525408210811
H         5.72953058385144   -6.02039792554685   -5.86164096652232
H         5.43129368363334   -3.39104825389039   -6.70907518107925
H         6.84563507290261   -4.48026600174411   -6.57187983318301
H         6.92874064865638   -2.19064423541059   -5.24237953505414
H         7.20935276845058   -3.75709796873324   -4.26700479967584
