35
 energy: -44.220148757469 gnorm: 0.104835911147 xtb: 6.4.1 (025e99ea0bd20707e8cccc6e19fe66a0758c6dd1)
C         1.00009970023345    0.81071018384575    0.39588395971846
O         2.41151831947493    0.72440732173212    0.25054063560528
C         2.85508348158219    0.42047222289957   -1.00705249792263
C         2.19910499473435   -0.31920284598950   -1.99206126485723
C         2.88229244571654   -0.66247005547697   -3.16292222503960
C         4.27860469438708   -0.55223147450852   -3.21808649782312
C         4.94903319945913    0.18258546034019   -2.23116833518634
C         4.21266122244092    0.69504784642449   -1.14995925390254
C         5.04642378843806   -0.94118788553102   -4.46460729285281
C         5.38428343490073   -2.45357708638462   -4.38060759184112
C         4.33488411192526   -3.30109278218335   -3.64227769105848
C         4.74462499116318   -4.77064487148289   -3.62302997481490
C         5.43318348611840   -5.24997675832902   -4.88615542801139
C         5.18377806346032   -4.28222790326272   -6.02505785534368
C         5.84048111204779   -2.93846314078272   -5.76563902057276
H         0.74352851817806    1.47576535564048    1.22697312704070
H         0.61142573367758   -0.17231290581683    0.67976766191134
H         0.51948644244773    1.09861320926632   -0.54492872823490
H         1.20225869568401   -0.74419198708911   -1.91363285550124
H         2.33940899347081   -1.28667343390724   -3.87046784932349
H         5.97735648410263    0.52040004452350   -2.31172282997289
H         4.79016519829844    1.26770570312895   -0.43034496592222
H         5.94543119397168   -0.31445121229072   -4.55511781426279
H         4.44007092887743   -0.84195131573499   -5.37518457482620
H         6.22137858070612   -2.57460844302626   -3.67256920742442
H         3.38898307719552   -3.16059014676741   -4.17672422145550
H         4.25096650205637   -2.90691614705231   -2.61874538480569
H         3.83695474947888   -5.31997635517203   -3.34206195209915
H         5.44668313517690   -4.91648115509893   -2.79170525862739
H         5.07142036571041   -6.27790266880796   -5.01729334669763
H         6.50380510826594   -5.36599267343090   -4.68291317256619
H         4.10395666440676   -4.12217108527852   -6.11582325399168
H         5.59967498210589   -4.76694444248814   -6.91785183373160
H         5.64781724430824   -2.25974916011117   -6.60261171227902
H         6.92730644564500   -3.04769151235736   -5.63393545823394
