35
 energy: -44.220055668018 gnorm: 0.089352069090 xtb: 6.4.1 (025e99ea0bd20707e8cccc6e19fe66a0758c6dd1)
C         0.71630652966099    1.55999013079815   -0.04931453217750
O         1.99144770438572    0.93809085924469    0.03974527237929
C         2.60547677718583    0.42833404141469   -1.07101273027230
C         2.05334209545310   -0.04353484171516   -2.26271583343569
C         2.78005811956832   -0.74740253564414   -3.22808981461598
C         4.16880827765164   -0.92511487300065   -3.15971698938971
C         4.76741108513818   -0.42271623516214   -1.99665721954836
C         3.97265346314403    0.17327376345355   -1.00316304044102
C         4.91390054235953   -1.45257321394600   -4.36854804811371
C         5.89577516889153   -2.57100804417633   -3.92860268294392
C         5.12144942122596   -3.62987603714372   -3.12618692639213
C         4.85573358792851   -4.90159061721250   -3.92617350606472
C         4.58285458528787   -4.63404361398547   -5.39359076774452
C         5.60565020332243   -3.74880391599333   -6.07629088562432
C         6.64398009434608   -3.20448597545323   -5.11200369830115
H        -0.02747988834193    0.87021087209585   -0.46141001954946
H         0.76270030147975    2.50396660911403   -0.60135422745948
H         0.47887980500719    1.81780209975207    0.98807030863690
H         0.96863848298942   -0.08534336795096   -2.30897001884306
H         2.19265010295905   -1.12260652148575   -4.06423985682817
H         5.79521223654301   -0.51846075287521   -1.66122575296792
H         4.50366982040763    0.39420295703291   -0.08201999861826
H         5.44511519371340   -0.70485623268862   -4.97512502198181
H         4.20046642994513   -1.77628706111862   -5.13853751602925
H         6.55125771960171   -2.05084969172836   -3.20994202714959
H         4.14841390501907   -3.21107585805934   -2.84706124417164
H         5.55872635737137   -3.89019983890270   -2.15096584112638
H         4.07476765237138   -5.56684629979071   -3.53617291643696
H         5.73615852900076   -5.55538879574332   -3.87465159104875
H         3.57076060192892   -4.24193693442607   -5.55674562377410
H         4.47722548764312   -5.58404712421701   -5.92962583100001
H         5.16486574288607   -2.84398243016681   -6.50858469207649
H         6.07680824781784   -4.34892342929694   -6.86551083277950
H         7.18930210016103   -2.45362954823486   -5.69263598883557
H         7.36266701298571   -3.92866015634576   -4.70026732795157
