35
 energy: -44.217316083964 gnorm: 0.095966880704 xtb: 6.4.1 (025e99ea0bd20707e8cccc6e19fe66a0758c6dd1)
C         2.33119455609750    2.35415464002379    0.48156122372919
O         1.87623875689845    1.03392089984702    0.21571639670520
C         2.50969122146456    0.43919748846592   -0.84055492599357
C         1.76665600812117   -0.15657128768671   -1.86066642631686
C         2.40130644969046   -0.73956611021113   -2.96195144080733
C         3.80151461733850   -0.80238484061266   -2.98077683441409
C         4.57232372375455   -0.21331877648690   -1.96969216009629
C         3.89661251481391    0.31679320998496   -0.85781533624295
C         4.42563357076922   -1.35362632046135   -4.24618414307182
C         4.99853786671726   -2.79441643798921   -4.31274719016920
C         4.01801897941394   -3.95716570073753   -4.08636327647232
C         4.54046017870960   -5.16280624972501   -4.86181634270977
C         6.05163690403130   -5.28453394290065   -4.83206672212875
C         6.65902161306166   -4.09611135587370   -5.54940570639120
C         5.59790956441447   -3.02245261058626   -5.70927714651442
H         2.22126366862226    2.56546309080480    1.55025214967426
H         1.68796030924585    3.02937205897570   -0.09143349136964
H         3.37882818008149    2.59810174212993    0.27672136464341
H         0.68420970343196   -0.20067781861449   -1.77799883403229
H         1.84307667030442   -1.16368873437817   -3.79470146636105
H         5.65440579249737   -0.28908841438172   -2.00729314413202
H         4.44446548236594    0.83784798752835   -0.07829521546695
H         5.12203795771902   -0.61783872425579   -4.67378542265359
H         3.56918684575940   -1.37716009326801   -4.93364893763541
H         5.75359085602371   -2.85797440008056   -3.51115466288733
H         2.99460886186499   -3.71604828624692   -4.39392947753805
H         3.95341221596131   -4.20070196501423   -3.01559167832662
H         4.22916702024125   -5.18471453626310   -5.91404729198159
H         4.14698944270884   -6.14778494547884   -4.57852781655199
H         6.29707272620893   -6.25793205628414   -5.27586707768178
H         6.40951193938352   -5.20366935977561   -3.79940794871574
H         7.00879425750789   -4.44639288815004   -6.52656113967215
H         7.54330100782669   -3.66404712656834   -5.06322476196980
H         4.94087757032534   -3.18958695216716   -6.56873650242828
H         6.15049747997870   -2.13297887708089   -6.04684053123069
