35
 energy: -44.217632195907 gnorm: 0.099573391179 xtb: 6.4.1 (025e99ea0bd20707e8cccc6e19fe66a0758c6dd1)
C         0.68397149678314    0.75681370798334    0.04857238421874
O         2.08177031941818    1.01151826591937    0.00430702257236
C         2.80473527359434    0.42080666709290   -0.99521714865354
C         2.12006188858620    0.07505331989773   -2.16112719593046
C         2.82396475726620   -0.41487277451535   -3.26565697462699
C         4.21869367277989   -0.54090545347783   -3.20457882646685
C         4.86319956183792   -0.25057363447924   -1.99472042745565
C         4.15838622381006    0.13301471377155   -0.84147605266254
C         5.00756752766787   -1.03520235330587   -4.39956666611608
C         5.75280278042960   -2.38872736294202   -4.25423729349801
C         4.94341858550616   -3.34009938231417   -3.35733075649633
C         5.36830803136453   -4.78558492057373   -3.59791737502055
C         5.03041881469498   -5.25689273231583   -4.99900894649405
C         4.93454430836779   -4.09455229097165   -5.96627955237740
C         5.98573866567775   -3.05604710443828   -5.61877680933224
H         0.39329673580643   -0.28920607455715    0.19065388739156
H         0.13560983041452    1.14278801197239   -0.81647970715109
H         0.38908941004037    1.33494769730683    0.93050855949214
H         1.07920191236275    0.30356254034109   -2.37293696812146
H         2.20282759156522   -0.55609469665347   -4.14839028278420
H         5.94032170210390   -0.11979588719349   -2.02231700729351
H         4.65885466671795    0.42215066598590    0.07788476769643
H         5.67137866080613   -0.18363062744439   -4.60785901050774
H         4.35492988140547   -1.09465717070273   -5.28115154379958
H         6.71438718123314   -2.26436513904642   -3.72832409325592
H         3.86127800495458   -3.28091394658671   -3.51724228799572
H         5.01973018669829   -2.95708878215423   -2.32897518323779
H         4.93237573687196   -5.34993358667718   -2.76362306645483
H         6.46103986870861   -4.69089262061159   -3.55074594882348
H         4.16584327239083   -5.93297396903276   -4.98784300275105
H         5.86719472438318   -5.83024774525737   -5.41381959040875
H         3.89532971432166   -3.76899779640529   -6.08425451626383
H         5.03800781863701   -4.53032398259401   -6.96847703362401
H         6.16149667369639   -2.29320561758241   -6.38394169762194
H         6.89006702140549   -3.67799591790871   -5.54238396316226
