35
 energy: -44.218735674968 gnorm: 0.109971521829 xtb: 6.4.1 (025e99ea0bd20707e8cccc6e19fe66a0758c6dd1)
C         0.75684384825953    1.11511762233520    0.11392296065952
O         2.06692331808057    0.57357585652505    0.21927798199621
C         2.64620650476357    0.27996383121778   -0.98442050409325
C         2.07502922691122    0.18782519956222   -2.25443477224199
C         2.82082479433042   -0.17535582996291   -3.38021510532874
C         4.20744178012954   -0.36904267670524   -3.31193425504846
C         4.74840098709635   -0.37055662221197   -2.01934050364334
C         4.00243269733187   -0.01837680771327   -0.88207398098912
C         4.88167815683186   -1.08358048468739   -4.46496866632478
C         5.77617305038659   -2.34277706819517   -4.31387594355913
C         5.00526923288801   -3.29207725683172   -3.38157272315173
C         5.50930332194359   -4.72253017902762   -3.54769160407721
C         5.06750957770680   -5.30652683096420   -4.87551838850037
C         5.09670002959832   -4.20921958085633   -5.91998206285963
C         6.03357727438441   -3.04422124858319   -5.65673185047009
H         0.00173269058671    0.47838483114728   -0.35853322464590
H         0.84113195992088    2.03639812823111   -0.47099544950477
H         0.31415319307539    1.34877370718469    1.08779953712072
H         0.99326611645622    0.27813944298132   -2.20859543503550
H         2.25251035411277   -0.25393084208842   -4.30531929986022
H         5.75025737801141   -0.77270804217057   -1.90702618433916
H         4.52471364003759   -0.04323625281423    0.06971234518452
H         5.48539324401803   -0.38294320424320   -5.05981387250039
H         4.12950340160896   -1.42943243981260   -5.18696744399361
H         6.75015855589633   -2.09874567974829   -3.85726217436979
H         3.96107113388378   -3.19666425884056   -3.69882584579475
H         4.95756482878667   -3.02962597789304   -2.31438980414615
H         5.12411582488018   -5.38685048371799   -2.76354716456798
H         6.59906091643703   -4.68619709468425   -3.41977391053123
H         4.10341378444607   -5.82677029676711   -4.80793566328879
H         5.78690262526776   -6.07290876388435   -5.18556699994529
H         4.05133073055934   -3.88201504921588   -5.92330163294349
H         5.34804399423077   -4.52424935502589   -6.94105204646867
H         6.05751958584113   -2.27506385667942   -6.43526829368850
H         7.06524939097894   -3.42590415402561   -5.67763096416443
