35
 energy: -44.219398593088 gnorm: 0.095373327728 xtb: 6.4.1 (025e99ea0bd20707e8cccc6e19fe66a0758c6dd1)
C         1.30001436157055    1.29988555016781    0.71977155229293
O         2.61064300199424    1.31326294602676    0.16954525172291
C         2.86989292022517    0.80079477670911   -1.07175766104952
C         1.96561310912327    0.15192351353814   -1.91372758203848
C         2.42721100332273   -0.48901567017581   -3.06768477091288
C         3.78667405977282   -0.61295861943873   -3.38608997991164
C         4.70527605515525   -0.11709426022687   -2.45135650277560
C         4.21618941142742    0.68751496505393   -1.40863280907469
C         4.21233530277437   -1.60570183668020   -4.44812611467906
C         4.97660198172575   -2.80706051610686   -3.83074458356461
C         4.13296649635300   -4.07398435868267   -4.04945898066738
C         5.01979374348287   -5.27215999503324   -4.37465736050377
C         5.68167745826046   -5.06609733740111   -5.72328848131095
C         6.18219185138050   -3.63763748020442   -5.79276818988814
C         6.37670190172324   -2.97247042913412   -4.44222037534278
H         0.94515349975470    0.43019118959685    1.28239206208158
H         0.53290549368175    1.41847131009854   -0.05189754856015
H         1.26645792684590    2.18288548968322    1.36644831869802
H         0.90961584304895    0.04307453958511   -1.68244636619765
H         1.72272681936007   -1.03505621299309   -3.69259665871487
H         5.77239047937136   -0.31529740859722   -2.44512680313679
H         4.88537025938821    1.07718201452874   -0.64728586370203
H         4.95283331562298   -1.10937455899667   -5.09196402631588
H         3.33749618736303   -2.01696735099722   -4.96983472357965
H         5.00683300078374   -2.67230704406689   -2.73638503898955
H         3.42874915400510   -3.97768920105860   -4.88307041912242
H         3.52724307827959   -4.34188362201053   -3.17118516613844
H         4.49804240382674   -6.23765595786094   -4.38755936882380
H         5.74859753683289   -5.48762708147395   -3.58239881125483
H         4.88225724961149   -5.19969100667178   -6.46341107160702
H         6.46157669966312   -5.80288240589080   -5.94667760590375
H         5.46377003481731   -2.97112889322098   -6.28216291231946
H         7.09154907992733   -3.43862581892767   -6.37454585218283
H         6.78011889928019   -1.95611051894486   -4.49284233005155
H         7.03343908974976   -3.60461063579565   -3.82613515744312
