35
 energy: -44.219091006073 gnorm: 0.087936655361 xtb: 6.4.1 (025e99ea0bd20707e8cccc6e19fe66a0758c6dd1)
C         2.48139129280764    1.90337015073233    0.74492619354513
O         1.61743122737026    1.29397185992300   -0.20527489679016
C         2.19965394036211    0.52427914604650   -1.17442758213687
C         1.48968046919609    0.35384658477407   -2.36378021304158
C         2.19504216165349   -0.29417969729103   -3.38261272110715
C         3.44240240601928   -0.90117930862199   -3.18129846402599
C         4.10896278544336   -0.77162333965789   -1.95559447571527
C         3.46279817340770   -0.02073306279396   -0.95934674375546
C         4.03472892218343   -1.55858006680929   -4.41077838356665
C         5.10849902916272   -2.66263166777580   -4.21943056912182
C         4.56579248575284   -3.99888195089899   -3.68599115064257
C         5.56407671047143   -5.14829614411786   -3.78657453966573
C         6.59459474395361   -5.01217242128088   -4.89059477517756
C         6.12393696741350   -4.10757355411835   -6.01131855652520
C         5.86623982669841   -2.68253746008291   -5.55620859965747
H         2.87412388457324    1.16726484437250    1.45397234582904
H         1.91862445542954    2.66355597444462    1.29574631211819
H         3.33999845930849    2.34639151540122    0.22962863488791
H         0.46541959393598    0.71226818594752   -2.41756635015974
H         1.81549540638038   -0.44893506801483   -4.39106110760478
H         5.10215786090306   -1.17146873398489   -1.77742687446531
H         4.00961186981646    0.13543870734420   -0.03419932616736
H         4.41919243487661   -0.72169150955694   -5.01162002386102
H         3.18990008221807   -2.05729664996544   -4.90495312774404
H         5.83722306422735   -2.35816927795915   -3.44939215919438
H         3.66303559345647   -4.22684027689537   -4.26319808419578
H         4.21219493331376   -3.80430267689022   -2.66269088124680
H         5.00111258957293   -6.02770771219765   -4.12462788981609
H         6.00165426572059   -5.49316842770286   -2.84061279025517
H         6.70657662234642   -6.00723280207751   -5.34005699098847
H         7.58034160536113   -4.72781721396801   -4.50531175680946
H         5.18905108142099   -4.50689965263517   -6.41923747310358
H         6.67058624024148   -4.20044868098252   -6.95870983761751
H         5.29737378886514   -2.13157648217912   -6.31193920771558
H         6.77382233942636   -2.08903345710530   -5.37043198642128
