35
 energy: -44.217749812165 gnorm: 0.092199965987 xtb: 6.4.1 (025e99ea0bd20707e8cccc6e19fe66a0758c6dd1)
C         1.71786110784782    1.36684332946002    0.97764168002085
O         2.40871052672734    1.64158250153806   -0.23393614777700
C         2.52380145482875    0.81858224559360   -1.32025641462335
C         3.46072255389030    1.07405799702945   -2.32254392257803
C         3.73822575170031    0.12907090686291   -3.31525950690341
C         3.15583642237522   -1.14523467285493   -3.35828856483275
C         2.16431550045700   -1.39247394086838   -2.39954105708561
C         1.94742190487814   -0.44739561498281   -1.38285104193931
C         3.55145797144317   -2.25336309852223   -4.31232332643157
C         5.09036630004992   -2.37183111903423   -4.47435008330218
C         5.82309385433387   -3.06440847038654   -3.31327309195679
C         6.85172409952459   -4.05303523183903   -3.85399330725807
C         6.21699264591165   -5.14537234296261   -4.69260727482714
C         5.32940767405802   -4.61516445963098   -5.80026794850319
C         5.32586531525936   -3.09721164294260   -5.80848132772813
H         0.65719874200350    1.16880878530079    0.79159325400852
H         1.75567766508616    2.30493663023160    1.54026292699663
H         2.16594922781544    0.57291372144409    1.58418811519570
H         4.12919712178704    1.92971608773664   -2.36075800340716
H         4.60145459242829    0.29687772572456   -3.95685903649719
H         1.79741220815033   -2.39423145531747   -2.19974025792255
H         1.30312869724817   -0.93725956111262   -0.65882606782850
H         3.11641128105683   -1.93908334394815   -5.27209827162409
H         3.14194339464143   -3.21580290209699   -3.97665963853354
H         5.40109340036284   -1.31891691344582   -4.58166071235214
H         5.04866758669853   -3.63012734799836   -2.78381208308332
H         6.26934011551338   -2.35774584636455   -2.59806125199595
H         7.28290972180592   -4.53993745838206   -2.96992399005030
H         7.69174143031919   -3.56571145063412   -4.36599043492138
H         5.62185469233341   -5.80541818809162   -4.04851746346901
H         6.99768909790772   -5.82609060457339   -5.05056462215042
H         4.30920388918832   -4.99353768912637   -5.67421743292906
H         5.74175136162712   -4.96773779063097   -6.75455626330910
H         4.56090896644780   -2.73135306943204   -6.50078517062733
H         6.33200002410043   -2.92871260598819   -6.22050923093291
