35
 energy: -44.223581226348 gnorm: 0.087674850180 xtb: 6.4.1 (025e99ea0bd20707e8cccc6e19fe66a0758c6dd1)
C         0.69896459536723    0.90458146435403    0.17568826619290
O         2.08501787946132    0.59451285089082    0.11747207877607
C         2.75830823934083    0.38808348896644   -1.05501847074387
C         2.10095682711815    0.18049809233302   -2.26847085304019
C         2.82530105888020   -0.31753199521979   -3.35602973370706
C         4.20967540779679   -0.53296687099680   -3.31154371808935
C         4.86430238046081   -0.22551846017509   -2.11138674635226
C         4.14787803910645    0.30422071888353   -1.02511467151345
C         4.90138983915546   -1.12874802038620   -4.52035441381725
C         5.72817885007116   -2.39985289250953   -4.18984191185966
C         4.83894520375903   -3.32020186741608   -3.33727277924826
C         5.24790561809100   -4.78154373131855   -3.49561652881258
C         4.94195438055609   -5.22904429548290   -4.91177148333533
C         5.27646074335753   -4.18180528910115   -5.95447738928160
C         6.15719994695241   -3.02124737652042   -5.52825614510128
H         0.20801561091607    0.03132141792196   -0.26615145947265
H         0.47274343279157    1.77732738925017   -0.44490043575453
H         0.46271500642871    1.07668818371579    1.23094708653164
H         1.06934394508306    0.52138135838961   -2.27501254869880
H         2.19747219845053   -0.64033435693149   -4.18464464100219
H         5.93025951472067   -0.41649398634521   -2.03844685084561
H         4.63762258614788    0.42655939713795   -0.06361786175719
H         5.57112213869431   -0.41481040916229   -5.02131055640072
H         4.16450065434171   -1.37910482897222   -5.29558242544531
H         6.56983586579926   -2.04769998630487   -3.56992496405539
H         3.80235614719255   -3.19405043651425   -3.66844010368403
H         4.88829718765051   -3.01899961291351   -2.28044859763426
H         4.74142392225067   -5.50632692196719   -2.84543271295950
H         6.32443670770190   -4.88749915051283   -3.30824282367931
H         3.86616895185336   -5.44401586729476   -4.87750311047400
H         5.42748689115139   -6.17688307149123   -5.17033985009791
H         4.32805656579663   -3.77848203151239   -6.32559820820293
H         5.90532641010358   -4.48846763557794   -6.80034241235678
H         6.04414786040619   -2.32485979623374   -6.36525010283695
H         7.20310629510065   -3.31536076769123   -5.35492641574672
