35
 energy: -44.217644200706 gnorm: 0.110273461531 xtb: 6.4.1 (025e99ea0bd20707e8cccc6e19fe66a0758c6dd1)
C         0.72362677237259    1.05333972587889    0.19811594701173
O         2.11660450761256    0.82626423599775    0.02863105783921
C         2.62102782535757    0.26846671047565   -1.11377259788290
C         2.03435386843467    0.06243033397457   -2.36318522718859
C         2.80760292310337   -0.47767742258938   -3.39559131981358
C         4.20664454897492   -0.53200250543246   -3.32765882839664
C         4.77481848900080   -0.25953100286705   -2.07610963140126
C         4.00738052507377    0.21089167207649   -0.99739932434140
C         5.02754132076173   -1.06537954519876   -4.48363665015691
C         5.75270002022207   -2.39791747232918   -4.15650717540422
C         5.03444801698038   -3.39253676151364   -3.22941529756207
C         5.34333721708468   -4.85516739754681   -3.53460455488805
C         5.00203245571439   -5.17774154518601   -4.97641409351870
C         5.00214912592323   -3.98852865827265   -5.91535623477240
C         6.12169721509610   -3.05270746485978   -5.49689293834116
H         0.15841314597600    0.12346475713527    0.07686226997981
H         0.44501117741422    1.82815877011774   -0.52300859198335
H         0.64163494389264    1.23263104575155    1.27521284784774
H         0.96203015779208    0.22521425625204   -2.42715845300216
H         2.35388112320005   -0.65677090438682   -4.36874863191381
H         5.83139628913588   -0.37843906041917   -1.85802543499376
H         4.59677209438125    0.27206077399687   -0.08736168678294
H         5.77717996918431   -0.36309970403252   -4.87612898411891
H         4.31210503656515   -1.26225592045470   -5.29360781183471
H         6.67622544692341   -2.04994002828791   -3.66385343990374
H         3.96639496813642   -3.16414604042706   -3.31428703414304
H         5.32885024436429   -3.23892352204260   -2.18071797988554
H         4.70937823413890   -5.58890550748634   -3.02050556848354
H         6.41900998994601   -5.00966886501277   -3.37868142127552
H         4.07896099668981   -5.77137411437871   -4.99193310728954
H         5.75729735381049   -5.80791144937424   -5.45958962040245
H         4.00586483886473   -3.53627047413014   -5.86290673687581
H         5.17047008908501   -4.23629864431935   -6.97142419891535
H         6.21137593337501   -2.30563591955198   -6.29196347149984
H         7.00066541323304   -3.70936656454755   -5.41516349560337
