35
 energy: -44.220902863265 gnorm: 0.097739433066 xtb: 6.4.1 (025e99ea0bd20707e8cccc6e19fe66a0758c6dd1)
C         0.85594755447188    1.11599232237628    0.21607688297546
O         2.23278600074622    0.77635628899959    0.11790032504015
C         2.65152744697612    0.35091591556477   -1.11267805792570
C         1.95627762150259    0.12343251357965   -2.30118477030818
C         2.65619380356403   -0.32679599835225   -3.42497498552152
C         4.03698624857742   -0.56563513434079   -3.38959717989925
C         4.69618708976213   -0.43705286636513   -2.15981728637481
C         4.02564827317636    0.13129111330381   -1.06380758872376
C         4.79432423106788   -1.14346958688159   -4.56738911167500
C         5.68970475442160   -2.35301870053663   -4.18816513843655
C         5.04897534760955   -3.36679870661890   -3.22568461958783
C         5.43172223031318   -4.80564241770826   -3.55896377909646
C         4.97022045238075   -5.17994995164760   -4.95405078187324
C         5.28800822009732   -4.10533281037857   -5.97387850345395
C         6.23995271470353   -3.04880712928697   -5.44301512934032
H         0.24879158180965    0.30535665755875   -0.19993729956802
H         0.54804748640944    1.99701132336442   -0.35575776779037
H         0.61364272439375    1.18287452050419    1.28182587282869
H         0.87387920214179    0.13351275349070   -2.20747582886388
H         2.16823111599047   -0.31436612285596   -4.39796573863016
H         5.74498908567245   -0.70445114252939   -2.07876780352312
H         4.48583923537736    0.15138975149746   -0.08038860154507
H         5.42183961490980   -0.32111599984135   -4.94043648694047
H         4.04476586358459   -1.42495756041462   -5.31944591777797
H         6.49366478443422   -1.86477717272021   -3.61200222724359
H         3.95544073356760   -3.30134404399172   -3.22492145605490
H         5.37866174555304   -3.30086823947211   -2.17830893967463
H         5.03531394326084   -5.55295781193155   -2.85971164602986
H         6.52149567092173   -4.91553988033770   -3.48432439821114
H         3.88061096838684   -5.28493356507408   -4.87385727026675
H         5.38259866961037   -6.14485106473696   -5.27013275089455
H         4.30763204649350   -3.62418004962450   -6.05888070783055
H         5.72134794538192   -4.41151835766032   -6.93485121371746
H         6.26541849602261   -2.31626768826595   -6.25605435423481
H         7.19936671221486   -3.46542046951513   -5.10180540604189
