35
 energy: -44.216889825468 gnorm: 0.092462185024 xtb: 6.4.1 (025e99ea0bd20707e8cccc6e19fe66a0758c6dd1)
C         2.49134575351724    2.50347558160126    0.40909333399638
O         1.92123367895227    1.24969312816762    0.05741570609519
C         2.48749725740435    0.44115162623360   -0.88930139522845
C         1.65871577384827   -0.18594261567707   -1.82072144753370
C         2.26241488529739   -0.96107843671155   -2.81581173979677
C         3.65407136714939   -1.09068868053091   -2.92247452110971
C         4.44294281669788   -0.55387445672870   -1.89634096189649
C         3.84207871568729    0.12556109483957   -0.82339915946458
C         4.30322204433219   -1.35960191720241   -4.26446423861846
C         5.06910534945854   -2.70793404986896   -4.32730848599012
C         4.06996139523461   -3.86976271610047   -4.19878477255887
C         4.58349784873562   -5.19243386096689   -4.75973286113537
C         6.09972361147308   -5.18012359489722   -4.74343367183221
C         6.58959026798232   -4.12013327540230   -5.70898575802169
C         5.85541983146204   -2.79305166465157   -5.64488481813266
H         2.58298726483799    2.58993520574299    1.49673432281843
H         1.82615132792386    3.24465366018520   -0.04495868290270
H         3.48393271680162    2.69715524189349   -0.01074600943207
H         0.58149294034521   -0.06863213321780   -1.74135806864584
H         1.57261242252285   -1.33092332853351   -3.57235679667172
H         5.51417913770514   -0.71547810789771   -1.83005750431346
H         4.44672633333662    0.42647918551806    0.02697848517029
H         4.90879401263529   -0.46751324259975   -4.48048672343746
H         3.55485264036996   -1.54746223981681   -5.04633021642955
H         5.81822366082398   -2.74844710354893   -3.51868269562310
H         3.21314001541626   -3.60621898130040   -4.82847094490015
H         3.62838265885232   -3.85426561361573   -3.19141005305326
H         4.33125422515745   -5.31560166143050   -5.82075888495588
H         4.19248081048448   -6.00996055315920   -4.14004711344064
H         6.39719445881063   -6.15012903429246   -5.16212440415457
H         6.53047038504763   -5.14008676188432   -3.73653147536369
H         6.44182804613379   -4.52560179801945   -6.71577888436450
H         7.62652304757382   -3.80435293910986   -5.53562299225108
H         5.19494894694267   -2.83719516406030   -6.51673622943364
H         6.49033442674853   -1.90275988890573   -5.76625194590321
