35
 energy: -44.227512869907 gnorm: 0.095114494684 xtb: 6.4.1 (025e99ea0bd20707e8cccc6e19fe66a0758c6dd1)
C         0.83196682610472    1.09957049955681    0.26500021705310
O         2.24222843061993    1.07318428026163    0.08853109467594
C         2.78311557886922    0.35225987372991   -0.94024301185504
C         2.09129117172156   -0.31807008532106   -1.95004792822321
C         2.69109968825914   -0.79958845823759   -3.11789322748058
C         4.05977180141217   -0.54115184110614   -3.27547079500437
C         4.80349612109129    0.11225929837637   -2.28382278260687
C         4.14573190527973    0.56786164802331   -1.12898634938750
C         4.82886968328597   -1.09270759885210   -4.45823113992266
C         5.51661949088051   -2.44323471195299   -4.12416093416939
C         4.51519327319356   -3.49473225255317   -3.61804702325882
C         5.04323848977803   -4.91994108900682   -3.75142403662512
C         5.15582690123516   -5.28061714734002   -5.21995881681667
C         5.50468285134916   -4.02664267994726   -5.99564381197774
C         6.39057928448341   -3.06470703784300   -5.22484676154789
H         0.43093705728536    0.08127011194067    0.29779959989525
H         0.36608440891407    1.76946079981976   -0.46451493666846
H         0.68156859878829    1.47454124270942    1.28273450750399
H         1.00764761896235   -0.39672103643597   -1.94996373850643
H         2.16923607362871   -1.37712951067616   -3.87886484219822
H         5.83822819827268    0.29421008325836   -2.55636623859423
H         4.73162488165248    1.19361720136367   -0.46231402343294
H         5.63792046707931   -0.38401599709688   -4.68713804474452
H         4.12413181577106   -1.33467284919337   -5.26536187891888
H         6.20789973357428   -2.21703902536810   -3.29490683393231
H         3.56152537718747   -3.35253687856963   -4.13804786139459
H         4.40707279677571   -3.22981961813987   -2.55589494966807
H         4.32828402729981   -5.53153098996375   -3.18629459467587
H         6.04682002891640   -5.11077518119491   -3.34935304010359
H         4.23987231844980   -5.72081632968938   -5.63463130042106
H         5.91249465390175   -6.05128218650924   -5.40577343995001
H         4.56510009542004   -3.46924157437776   -6.07538745981227
H         5.86544216981697   -4.30619131747094   -6.99399581970522
H         6.85005476018600   -2.37514712037020   -5.94016817689549
H         7.22238983284882   -3.60450104069023   -4.74821313295186
