35
 energy: -44.219329513224 gnorm: 0.095904547427 xtb: 6.4.1 (025e99ea0bd20707e8cccc6e19fe66a0758c6dd1)
C         0.78280515960269    1.13186969285716    0.28275404037551
O         2.18989051321443    1.25549277949616    0.12305582798428
C         2.77313479795402    0.61263982881603   -0.93393672812172
C         2.08426191558489   -0.15450990727533   -1.87447098374727
C         2.76254197204356   -0.86703607100571   -2.86831980564576
C         4.13982352271219   -0.70128108412593   -3.06957669951363
C         4.81179607128373    0.22006004451566   -2.25531557818756
C         4.11521604088291    0.85595289603337   -1.21402263444643
C         4.83533611975040   -1.27562705627044   -4.28655502749381
C         5.51715186184676   -2.64236801876328   -4.01146847889224
C         4.35128711609211   -3.60888520506202   -3.74452885189491
C         4.95798265035111   -5.00106559460482   -3.89148361120798
C         5.32282497881766   -5.37268065827689   -5.31561495725590
C         5.65021014521744   -4.09533685043319   -6.06197371829719
C         6.36287755012252   -3.04465148118740   -5.22985222028002
H         0.50774626668111    0.09072894569404    0.48075632807430
H         0.17650952613097    1.49917260075571   -0.55120397924512
H         0.61096661908712    1.66348743582399    1.22448641339054
H         1.01316095493311   -0.33654896839702   -1.88306417717019
H         2.13500183373960   -1.51066789303097   -3.48224533578769
H         5.74174940757824    0.65885275474464   -2.60274074573645
H         4.69811405721546    1.56363757893563   -0.63203906463346
H         5.58798521357350   -0.61733611166935   -4.74413309942965
H         4.29021073573006   -1.54068122582581   -5.20265942391101
H         6.16609258748529   -2.68584399741995   -3.12058072340947
H         3.61815095596981   -3.37308963137541   -4.52364031474035
H         3.94342010745914   -3.38183611428952   -2.74847213558527
H         4.31038729212092   -5.80722613222271   -3.52365373673022
H         5.88752340688907   -4.93985592592295   -3.31056881312086
H         4.44207385778187   -5.78201484740809   -5.82691171218147
H         6.11921491452795   -6.10598809570847   -5.48597057719077
H         4.72612713729305   -3.60479498078214   -6.38648884172597
H         6.18598786229474   -4.30688752768534   -6.99642008218934
H         6.54723763621079   -2.16859743735763   -5.85980141863191
H         7.37843404384284   -3.41135397918919   -5.01856981463487
