35
 energy: -44.212707407930 gnorm: 0.091883541972 xtb: 6.4.1 (025e99ea0bd20707e8cccc6e19fe66a0758c6dd1)
C         2.32443751991037    2.06059875576637    1.07008032889212
O         1.85569156044028    1.43547446859183   -0.11742639436146
C         2.61840614236056    0.76141307755678   -1.03097703464772
C         1.96904050160745   -0.38571425761765   -1.48933541179447
C         2.39399985413084   -1.13762119084116   -2.58912555439043
C         3.65488191270550   -0.87734056148914   -3.14348459116836
C         4.30447245139211    0.25684895730026   -2.63842618125506
C         3.72951357497844    1.18574947775161   -1.75500072224084
C         4.21483392922865   -1.69545420521973   -4.28881908619718
C         5.12811411648769   -2.89075952467141   -3.90712463646398
C         4.32697248573726   -4.20279003184099   -3.86969654288195
C         4.37116032394412   -4.96416563083838   -5.19113365195249
C         5.71498515829438   -5.32437465565568   -5.79424395622258
C         6.73134381543885   -4.35540085625906   -5.22508272734716
C         6.20293044642295   -2.94966134652964   -5.00386676385871
H         1.43907561230617    2.14400051195852    1.70884068706728
H         2.65750730897247    3.09062367053899    0.90850994824351
H         3.09050943390883    1.45121617452049    1.56078640869389
H         0.95190915934571   -0.52389348204849   -1.13321791176166
H         1.67221786006021   -1.88596812282548   -2.91158596994035
H         5.20234548640581    0.63038093363577   -3.12045767936116
H         4.11507032203460    2.17089036845084   -1.50977431770528
H         4.77513236571537   -0.92679395396109   -4.84057302246423
H         3.35759471684297   -2.01641524971699   -4.89609793945198
H         5.59123574104985   -2.64274715982443   -2.93722595849185
H         3.25663777949095   -4.10791455797828   -3.65642416115908
H         4.76510474212293   -4.90113419054093   -3.14141683970434
H         3.83692460752134   -4.33686072005801   -5.91615373685743
H         3.72181037032025   -5.83853487971394   -5.05301161766541
H         5.72782376193950   -5.24545506447047   -6.88891662591770
H         6.03141606648687   -6.34842671188663   -5.56580002450555
H         7.54226554729315   -4.22259115391427   -5.94940194141131
H         7.17770465802595   -4.65751286412605   -4.26879208606367
H         5.80342230902604   -2.50210437514453   -5.91949841805219
H         7.05570496049578   -2.41869981692657   -4.55517817152022
