35
 energy: -44.220278203139 gnorm: 0.088188151311 xtb: 6.4.1 (025e99ea0bd20707e8cccc6e19fe66a0758c6dd1)
C         0.73716659964837    1.25163755356247    0.20981897826814
O         2.12826680070328    1.28794331243474   -0.08034904601906
C         2.75611574648562    0.63002744225570   -1.10192599353701
C         2.06293524480873   -0.12320646380198   -2.05050846397349
C         2.71054042960737   -0.80511277835478   -3.08545007349639
C         4.10910237183614   -0.76041254706820   -3.16857585608710
C         4.79099452237679   -0.00835929169236   -2.20272040916421
C         4.14057625808541    0.73704054172262   -1.20511847967724
C         4.89296220169543   -1.41926221685231   -4.28487698232972
C         5.55263094095235   -2.71172684837942   -3.73451482705191
C         4.60550568731288   -3.86060167125426   -3.35020606590602
C         4.70652528110956   -5.06754557097099   -4.27806535816417
C         4.77901322518894   -4.70666090210812   -5.74907369289970
C         5.98041015973142   -3.81860478692886   -6.00174223194074
C         6.58737511004816   -3.27655367640298   -4.72032313486181
H         0.65471466649565    0.44053394885505    0.94067393999738
H        -0.01282872101441    1.05977224707363   -0.56392937551157
H         0.51655423470587    2.21375470794955    0.68380899037627
H         1.05659926216172   -0.38124200347974   -1.73242847615372
H         2.15253674654481   -1.49545224674218   -3.71555831927869
H         5.84959356153049    0.10547570558668   -2.41359041138023
H         4.80808780882217    1.21859268488445   -0.49671997873090
H         5.63552606366311   -0.75106838346391   -4.74457387187037
H         4.25100971218019   -1.52480361063715   -5.16998753172076
H         6.13013399979565   -2.31432277226843   -2.88289552218060
H         3.56706421855055   -3.51431938958826   -3.39299329616934
H         4.95102750816639   -4.13008466932075   -2.34123166021297
H         3.75475274752451   -5.59456383062104   -4.13330979105672
H         5.49473134530875   -5.76860527784554   -3.97392537550064
H         3.87627502081740   -4.21164491738252   -6.12950015722947
H         4.88090997416950   -5.64363928968539   -6.30825731027346
H         5.67593453102514   -2.98859698273415   -6.64846661842069
H         6.81833780333823   -4.36541962704596   -6.45326438250085
H         7.31275006112143   -2.47796225125331   -4.90573682574900
H         7.12520660585733   -4.11378924815808   -4.25102594900647
